CHR-SOS-709-13
 OpenBabel03242009303D

 36 38  0  0  0  0  0  0  0  0999 V2000
    8.0264   -5.1555   28.3645 C   0  0  0  0  0  0  0  0  0  0  0  0
    9.2850   -4.5570   28.3077 C   0  0  0  0  0  0  0  0  0  0  0  0
    7.1436   -5.0261   27.2922 C   0  0  0  0  0  0  0  0  0  0  0  0
    5.3795    1.2022   19.0560 C   0  0  0  0  0  0  0  0  0  0  0  0
    9.6608   -3.8289   27.1789 C   0  0  0  0  0  0  0  0  0  0  0  0
    7.5194   -4.2981   26.1634 C   0  0  0  0  0  0  0  0  0  0  0  0
    6.0592    0.5683   20.0901 C   0  0  0  0  0  0  0  0  0  0  0  0
   10.5162   -2.8921   24.5811 C   0  0  0  0  0  0  0  0  0  0  0  0
    9.9636   -1.4983   22.6866 C   0  0  0  0  0  0  0  0  0  0  0  0
    5.9416    1.1624   17.7902 C   0  0  0  0  0  0  0  0  0  0  0  0
    7.7408   -0.0597   18.5300 C   0  0  0  0  0  0  0  0  0  0  0  0
    8.7780   -3.6994   26.1066 C   0  0  0  0  0  0  0  0  0  0  0  0
    9.1682   -2.9444   24.9358 C   0  0  0  0  0  0  0  0  0  0  0  0
    8.6156   -1.5506   23.0413 C   0  0  0  0  0  0  0  0  0  0  0  0
    7.2632   -0.0770   19.8305 C   0  0  0  0  0  0  0  0  0  0  0  0
    8.2179   -2.2737   24.1659 C   0  0  0  0  0  0  0  0  0  0  0  0
   10.9139   -2.1690   23.4565 C   0  0  0  0  0  0  0  0  0  0  0  0
    7.6416   -0.8437   22.2209 C   0  0  0  0  0  0  0  0  0  0  0  0
    7.1089    0.5456   17.4995 N   0  0  0  0  0  0  0  0  0  0  0  0
    7.9793   -0.7318   20.8642 N   0  0  0  0  0  0  0  0  0  0  0  0
    6.6149   -0.3543   22.7092 O   0  0  0  0  0  0  0  0  0  0  0  0
    6.8964   -2.3187   24.5070 O   0  0  0  0  0  0  0  0  0  0  0  0
   12.5780   -2.1001   23.0222 Cl  0  0  0  0  0  0  0  0  0  0  0  0
    7.7347   -5.7237   29.2428 H   0  0  0  0  0  0  0  0  0  0  0  0
    9.9731   -4.6590   29.1418 H   0  0  0  0  0  0  0  0  0  0  0  0
    6.1640   -5.4931   27.3352 H   0  0  0  0  0  0  0  0  0  0  0  0
    4.4395    1.7114   19.2353 H   0  0  0  0  0  0  0  0  0  0  0  0
   10.6456   -3.3684   27.1497 H   0  0  0  0  0  0  0  0  0  0  0  0
    6.8208   -4.2063   25.3350 H   0  0  0  0  0  0  0  0  0  0  0  0
    5.6422    0.5832   21.0936 H   0  0  0  0  0  0  0  0  0  0  0  0
   11.2598   -3.4117   25.1825 H   0  0  0  0  0  0  0  0  0  0  0  0
   10.2715   -0.9335   21.8092 H   0  0  0  0  0  0  0  0  0  0  0  0
    5.4510    1.6424   16.9499 H   0  0  0  0  0  0  0  0  0  0  0  0
    8.6750   -0.5461   18.2652 H   0  0  0  0  0  0  0  0  0  0  0  0
    8.8499   -1.1778   20.5861 H   0  0  0  0  0  0  0  0  0  0  0  0
    6.3727   -1.8047   23.8742 H   0  0  0  0  0  0  0  0  0  0  0  0
  1  2  1  0  0  0  0
  1  3  2  0  0  0  0
  1 24  1  0  0  0  0
  2  5  2  0  0  0  0
  2 25  1  0  0  0  0
  3  6  1  0  0  0  0
  3 26  1  0  0  0  0
  4  7  2  0  0  0  0
  4 10  1  0  0  0  0
  4 27  1  0  0  0  0
  5 12  1  0  0  0  0
  5 28  1  0  0  0  0
  6 12  2  0  0  0  0
  6 29  1  0  0  0  0
  7 15  1  0  0  0  0
  7 30  1  0  0  0  0
  8 13  2  0  0  0  0
  8 17  1  0  0  0  0
  8 31  1  0  0  0  0
  9 14  1  0  0  0  0
  9 17  2  0  0  0  0
  9 32  1  0  0  0  0
 10 19  2  0  0  0  0
 10 33  1  0  0  0  0
 11 15  2  0  0  0  0
 11 19  1  0  0  0  0
 11 34  1  0  0  0  0
 12 13  1  0  0  0  0
 13 16  1  0  0  0  0
 14 16  2  0  0  0  0
 14 18  1  0  0  0  0
 15 20  1  0  0  0  0
 16 22  1  0  0  0  0
 17 23  1  0  0  0  0
 18 20  1  0  0  0  0
 18 21  2  0  0  0  0
 20 35  1  0  0  0  0
 22 36  1  0  0  0  0
M  END
>  <Chemgauss4 Score>
-7.4498815536499

>  <Number of Confs>
20

$$$$
