KIM-UNI-60f-9
 OpenBabel03242009303D

 44 46  0  0  1  0  0  0  0  0999 V2000
   12.7581   -0.5169   22.4064 C   0  0  0  0  0  0  0  0  0  0  0  0
   12.7988    0.5316   23.3112 C   0  0  0  0  0  0  0  0  0  0  0  0
   10.8468   -0.1433   24.3174 C   0  0  0  0  0  0  0  0  0  0  0  0
   11.6928   -1.4066   22.4886 C   0  0  0  0  0  0  0  0  0  0  0  0
   10.7145   -1.2233   23.4596 C   0  0  0  0  0  0  0  0  0  0  0  0
    7.3102   -3.6870   23.8626 C   0  0  0  0  0  0  0  0  0  0  0  0
    7.2500   -2.6366   23.0444 C   0  0  0  0  0  0  0  0  0  0  0  0
    8.5208   -4.0534   24.5750 C   0  0  0  0  0  0  0  0  0  0  0  0
    9.6173   -3.2683   24.4079 C   0  0  0  0  0  0  0  0  0  0  0  0
    8.4308   -1.7624   22.8633 C   0  0  0  0  0  0  0  0  0  0  0  0
    7.4549   -5.5489   28.1283 C   0  0  0  0  0  0  0  0  0  0  0  0
   10.9328   -3.6979   25.0367 C   0  0  0  0  0  0  0  0  0  0  0  0
   10.9716   -5.1863   25.3762 C   0  0  0  0  0  0  0  0  0  0  0  0
    9.7210   -5.5980   26.1353 C   0  0  0  0  0  0  0  0  0  0  0  0
   11.6236   -2.5458   21.5252 C   0  0  0  0  0  0  0  0  0  0  0  0
    6.5773   -5.5163   26.8904 C   0  0  0  0  0  0  0  0  0  0  0  0
    7.3318   -6.0076   25.6622 C   0  0  0  0  0  0  0  0  0  0  0  0
   11.8672    0.7421   24.2681 N   0  0  0  0  0  0  0  0  0  0  0  0
    7.8995   -6.7002   28.5294 N   0  0  0  0  0  0  0  0  0  0  0  0
    9.5909   -2.1179   23.5862 N   0  0  0  0  0  0  0  0  0  0  0  0
    8.5233   -5.2063   25.3845 N   0  0  0  0  0  0  0  0  0  0  0  0
    7.7351   -4.3547   28.7388 N   0  0  0  0  0  0  0  0  0  0  0  0
    8.2988   -0.7756   22.1378 O   0  0  0  0  0  0  0  0  0  0  0  0
   13.5373   -0.6316   21.6606 H   0  0  0  0  0  0  0  0  0  0  0  0
   13.6087    1.2533   23.2889 H   0  0  0  0  0  0  0  0  0  0  0  0
   10.1158    0.0525   25.0964 H   0  0  0  0  0  0  0  0  0  0  0  0
    6.4055   -4.2671   24.0069 H   0  0  0  0  0  0  0  0  0  0  0  0
    6.3520   -2.4074   22.4823 H   0  0  0  0  0  0  0  0  0  0  0  0
   11.7487   -3.4504   24.3462 H   0  0  0  0  0  0  0  0  0  0  0  0
   11.1159   -3.1501   25.9684 H   0  0  0  0  0  0  0  0  0  0  0  0
   11.0605   -5.7738   24.4552 H   0  0  0  0  0  0  0  0  0  0  0  0
   11.8608   -5.4078   25.9809 H   0  0  0  0  0  0  0  0  0  0  0  0
    9.7074   -6.6837   26.2898 H   0  0  0  0  0  0  0  0  0  0  0  0
    9.7382   -5.1222   27.1229 H   0  0  0  0  0  0  0  0  0  0  0  0
   12.1445   -3.4199   21.9326 H   0  0  0  0  0  0  0  0  0  0  0  0
   10.5837   -2.8248   21.3154 H   0  0  0  0  0  0  0  0  0  0  0  0
   12.0831   -2.2809   20.5648 H   0  0  0  0  0  0  0  0  0  0  0  0
    5.6826   -6.1250   27.0667 H   0  0  0  0  0  0  0  0  0  0  0  0
    6.2492   -4.4827   26.7299 H   0  0  0  0  0  0  0  0  0  0  0  0
    7.6691   -7.0376   25.8138 H   0  0  0  0  0  0  0  0  0  0  0  0
    6.7023   -5.9780   24.7674 H   0  0  0  0  0  0  0  0  0  0  0  0
    8.4765   -6.5574   29.3656 H   0  0  0  0  0  0  0  0  0  0  0  0
    7.3666   -3.4815   28.3774 H   0  0  0  0  0  0  0  0  0  0  0  0
    8.3125   -4.3020   29.5713 H   0  0  0  0  0  0  0  0  0  0  0  0
  1  2  2  0  0  0  0
  1  4  1  0  0  0  0
  1 24  1  0  0  0  0
  2 18  1  0  0  0  0
  2 25  1  0  0  0  0
  3  5  1  0  0  0  0
  3 18  2  0  0  0  0
  3 26  1  0  0  0  0
  4  5  2  0  0  0  0
  4 15  1  0  0  0  0
  5 20  1  0  0  0  0
  6  7  2  0  0  0  0
  6  8  1  0  0  0  0
  6 27  1  0  0  0  0
  7 10  1  0  0  0  0
  7 28  1  0  0  0  0
  8  9  2  0  0  0  0
  8 21  1  0  0  0  0
  9 12  1  0  0  0  0
  9 20  1  0  0  0  0
 10 20  1  0  0  0  0
 10 23  2  0  0  0  0
 11 16  1  0  0  0  0
 11 19  2  0  0  0  0
 11 22  1  0  0  0  0
 12 13  1  0  0  0  0
 12 29  1  0  0  0  0
 12 30  1  0  0  0  0
 13 14  1  0  0  0  0
 13 31  1  0  0  0  0
 13 32  1  0  0  0  0
 14 21  1  0  0  0  0
 14 33  1  0  0  0  0
 14 34  1  0  0  0  0
 15 35  1  0  0  0  0
 15 36  1  0  0  0  0
 15 37  1  0  0  0  0
 16 17  1  0  0  0  0
 16 38  1  0  0  0  0
 16 39  1  0  0  0  0
 17 21  1  0  0  0  0
 17 40  1  0  0  0  0
 17 41  1  0  0  0  0
 19 42  1  0  0  0  0
 22 43  1  0  0  0  0
 22 44  1  0  0  0  0
M  END
>  <Chemgauss4 Score>
-4.91749286651611

>  <Number of Confs>
20

$$$$
