PAT-GYR-359-3
 OpenBabel03242009303D

 40 41  0  0  0  0  0  0  0  0999 V2000
    7.9655   -0.3502   20.3397 C   0  0  0  0  0  0  0  0  0  0  0  0
    7.2514    0.0955   19.4830 C   0  0  0  0  0  0  0  0  0  0  0  0
    8.3929   -1.9677   22.1234 C   0  0  0  0  0  0  0  0  0  0  0  0
   10.0671   -0.3098   21.5890 C   0  0  0  0  0  0  0  0  0  0  0  0
    9.2229   -2.4854   23.1177 C   0  0  0  0  0  0  0  0  0  0  0  0
   10.8971   -0.8275   22.5834 C   0  0  0  0  0  0  0  0  0  0  0  0
    8.8150   -0.8799   21.3590 C   0  0  0  0  0  0  0  0  0  0  0  0
   10.4750   -1.9153   23.3477 C   0  0  0  0  0  0  0  0  0  0  0  0
    6.3964    0.6286   18.4551 C   0  0  0  0  0  0  0  0  0  0  0  0
   10.2245   -4.3740   25.5298 C   0  0  0  0  0  0  0  0  0  0  0  0
    9.7278   -4.1120   27.9402 C   0  0  0  0  0  0  0  0  0  0  0  0
    8.5777   -5.9276   26.7318 C   0  0  0  0  0  0  0  0  0  0  0  0
    8.4189   -3.8314   28.6615 C   0  0  0  0  0  0  0  0  0  0  0  0
    7.3257   -5.5776   27.5290 C   0  0  0  0  0  0  0  0  0  0  0  0
    4.6241    2.1151   17.9922 C   0  0  0  0  0  0  0  0  0  0  0  0
   11.3677   -2.4715   24.4191 C   0  0  0  0  0  0  0  0  0  0  0  0
    9.4885   -4.7764   26.6570 N   0  0  0  0  0  0  0  0  0  0  0  0
   10.6114   -3.0391   25.5128 N   0  0  0  0  0  0  0  0  0  0  0  0
    6.5097    0.2648   17.2942 O   0  0  0  0  0  0  0  0  0  0  0  0
   10.5092   -5.1446   24.6070 O   0  0  0  0  0  0  0  0  0  0  0  0
    7.6721   -5.0408   28.8062 O   0  0  0  0  0  0  0  0  0  0  0  0
    5.5126    1.5342   18.9522 O   0  0  0  0  0  0  0  0  0  0  0  0
    7.4204   -2.4241   21.9546 H   0  0  0  0  0  0  0  0  0  0  0  0
   10.4101    0.5395   21.0028 H   0  0  0  0  0  0  0  0  0  0  0  0
    8.8861   -3.3336   23.7077 H   0  0  0  0  0  0  0  0  0  0  0  0
   11.8703   -0.3758   22.7569 H   0  0  0  0  0  0  0  0  0  0  0  0
   10.2961   -3.1864   27.8092 H   0  0  0  0  0  0  0  0  0  0  0  0
   10.3417   -4.8019   28.5316 H   0  0  0  0  0  0  0  0  0  0  0  0
    9.1344   -6.7290   27.2310 H   0  0  0  0  0  0  0  0  0  0  0  0
    8.2748   -6.2795   25.7448 H   0  0  0  0  0  0  0  0  0  0  0  0
    8.6222   -3.4451   29.6653 H   0  0  0  0  0  0  0  0  0  0  0  0
    7.8172   -3.0829   28.1323 H   0  0  0  0  0  0  0  0  0  0  0  0
    6.6943   -4.8626   26.9879 H   0  0  0  0  0  0  0  0  0  0  0  0
    6.7306   -6.4805   27.6991 H   0  0  0  0  0  0  0  0  0  0  0  0
    3.9597    2.8243   18.4919 H   0  0  0  0  0  0  0  0  0  0  0  0
    4.0385    1.3267   17.5125 H   0  0  0  0  0  0  0  0  0  0  0  0
    5.2121    2.6407   17.2361 H   0  0  0  0  0  0  0  0  0  0  0  0
   12.0148   -3.2567   24.0132 H   0  0  0  0  0  0  0  0  0  0  0  0
   12.0192   -1.6936   24.8308 H   0  0  0  0  0  0  0  0  0  0  0  0
   10.3555   -2.4454   26.2910 H   0  0  0  0  0  0  0  0  0  0  0  0
  1  2  3  0  0  0  0
  1  7  1  0  0  0  0
  2  9  1  0  0  0  0
  3  5  2  0  0  0  0
  3  7  1  0  0  0  0
  3 23  1  0  0  0  0
  4  6  1  0  0  0  0
  4  7  2  0  0  0  0
  4 24  1  0  0  0  0
  5  8  1  0  0  0  0
  5 25  1  0  0  0  0
  6  8  2  0  0  0  0
  6 26  1  0  0  0  0
  8 16  1  0  0  0  0
  9 19  2  0  0  0  0
  9 22  1  0  0  0  0
 10 17  1  0  0  0  0
 10 18  1  0  0  0  0
 10 20  2  0  0  0  0
 11 13  1  0  0  0  0
 11 17  1  0  0  0  0
 11 27  1  0  0  0  0
 11 28  1  0  0  0  0
 12 14  1  0  0  0  0
 12 17  1  0  0  0  0
 12 29  1  0  0  0  0
 12 30  1  0  0  0  0
 13 21  1  0  0  0  0
 13 31  1  0  0  0  0
 13 32  1  0  0  0  0
 14 21  1  0  0  0  0
 14 33  1  0  0  0  0
 14 34  1  0  0  0  0
 15 22  1  0  0  0  0
 15 35  1  0  0  0  0
 15 36  1  0  0  0  0
 15 37  1  0  0  0  0
 16 18  1  0  0  0  0
 16 38  1  0  0  0  0
 16 39  1  0  0  0  0
 18 40  1  0  0  0  0
M  END
>  <Chemgauss4 Score>
-5.10954666137695

>  <Number of Confs>
80

$$$$
