DAN-LON-a5f-1
 OpenBabel03242009303D

 47 49  0  0  1  0  0  0  0  0999 V2000
    5.6059   -6.7769   22.7320 C   0  0  0  0  0  0  0  0  0  0  0  0
    6.7145   -6.5152   21.9271 C   0  0  0  0  0  0  0  0  0  0  0  0
    5.3461   -5.9749   23.8434 C   0  0  0  0  0  0  0  0  0  0  0  0
   12.7087    0.1399   21.5827 C   0  0  0  0  0  0  0  0  0  0  0  0
    7.5635   -5.4517   22.2335 C   0  0  0  0  0  0  0  0  0  0  0  0
    6.1950   -4.9115   24.1499 C   0  0  0  0  0  0  0  0  0  0  0  0
   12.6401   -0.4236   22.8568 C   0  0  0  0  0  0  0  0  0  0  0  0
   11.6534    0.9178   21.1063 C   0  0  0  0  0  0  0  0  0  0  0  0
   10.4608    0.5685   23.1782 C   0  0  0  0  0  0  0  0  0  0  0  0
    7.3037   -4.6498   23.3449 C   0  0  0  0  0  0  0  0  0  0  0  0
   11.5162   -0.2093   23.6546 C   0  0  0  0  0  0  0  0  0  0  0  0
   10.5294    1.1321   21.9041 C   0  0  0  0  0  0  0  0  0  0  0  0
    8.3645   -5.2969   26.4320 C   0  0  0  0  0  0  0  0  0  0  0  0
    8.7442   -2.8119   26.7509 C   0  0  0  0  0  0  0  0  0  0  0  0
    9.9670   -1.9108   26.5827 C   0  0  0  0  0  0  0  0  0  0  0  0
   10.5643   -3.0048   24.5273 C   0  0  0  0  0  0  0  0  0  0  0  0
    9.3509   -3.9445   24.6091 C   0  0  2  0  0  0  0  0  0  0  0  0
    8.2176   -3.5047   23.6756 C   0  0  0  0  0  0  0  0  0  0  0  0
   11.4425   -0.8172   25.0254 C   0  0  0  0  0  0  0  0  0  0  0  0
    7.6751   -5.3098   27.7732 C   0  0  0  0  0  0  0  0  0  0  0  0
    8.8607   -4.0649   25.9937 N   0  0  0  0  0  0  0  0  0  0  0  0
   10.2940   -1.7115   25.1665 N   0  0  0  0  0  0  0  0  0  0  0  0
    8.4635   -6.3485   25.7943 O   0  0  0  0  0  0  0  0  0  0  0  0
    9.2272    2.0909   21.3154 Cl  0  0  0  0  0  0  0  0  0  0  0  0
    6.3320   -4.1779   27.6598 Cl  0  0  0  0  0  0  0  0  0  0  0  0
    4.9441   -7.6041   22.4925 H   0  0  0  0  0  0  0  0  0  0  0  0
    6.9163   -7.1388   21.0610 H   0  0  0  0  0  0  0  0  0  0  0  0
    4.4824   -6.1777   24.4698 H   0  0  0  0  0  0  0  0  0  0  0  0
   13.5841   -0.0274   20.9617 H   0  0  0  0  0  0  0  0  0  0  0  0
    8.4251   -5.2554   21.6007 H   0  0  0  0  0  0  0  0  0  0  0  0
    5.9849   -4.2921   25.0178 H   0  0  0  0  0  0  0  0  0  0  0  0
   13.4670   -1.0284   23.2198 H   0  0  0  0  0  0  0  0  0  0  0  0
   11.7204    1.3505   20.1112 H   0  0  0  0  0  0  0  0  0  0  0  0
    9.5869    0.7331   23.8043 H   0  0  0  0  0  0  0  0  0  0  0  0
    8.5941   -3.0045   27.8156 H   0  0  0  0  0  0  0  0  0  0  0  0
    7.8428   -2.3034   26.3880 H   0  0  0  0  0  0  0  0  0  0  0  0
    9.7447   -0.9442   27.0511 H   0  0  0  0  0  0  0  0  0  0  0  0
   10.8174   -2.3456   27.1249 H   0  0  0  0  0  0  0  0  0  0  0  0
   11.4299   -3.4927   24.9964 H   0  0  0  0  0  0  0  0  0  0  0  0
   10.8213   -2.8513   23.4714 H   0  0  0  0  0  0  0  0  0  0  0  0
    9.6779   -4.9358   24.2713 H   0  0  0  0  0  0  0  0  0  0  0  0
    8.6474   -3.0885   22.7611 H   0  0  0  0  0  0  0  0  0  0  0  0
    7.6545   -2.6974   24.1507 H   0  0  0  0  0  0  0  0  0  0  0  0
   12.3481   -1.3946   25.2409 H   0  0  0  0  0  0  0  0  0  0  0  0
   11.3600   -0.0424   25.7949 H   0  0  0  0  0  0  0  0  0  0  0  0
    8.3761   -4.9808   28.5317 H   0  0  0  0  0  0  0  0  0  0  0  0
    7.3043   -6.3095   27.9678 H   0  0  0  0  0  0  0  0  0  0  0  0
  1  2  1  0  0  0  0
  1  3  2  0  0  0  0
  1 26  1  0  0  0  0
  2  5  2  0  0  0  0
  2 27  1  0  0  0  0
  3  6  1  0  0  0  0
  3 28  1  0  0  0  0
  4  7  2  0  0  0  0
  4  8  1  0  0  0  0
  4 29  1  0  0  0  0
  5 10  1  0  0  0  0
  5 30  1  0  0  0  0
  6 10  2  0  0  0  0
  6 31  1  0  0  0  0
  7 11  1  0  0  0  0
  7 32  1  0  0  0  0
  8 12  2  0  0  0  0
  8 33  1  0  0  0  0
  9 11  2  0  0  0  0
  9 12  1  0  0  0  0
  9 34  1  0  0  0  0
 10 18  1  0  0  0  0
 11 19  1  0  0  0  0
 12 24  1  0  0  0  0
 13 20  1  0  0  0  0
 13 21  1  0  0  0  0
 13 23  2  0  0  0  0
 14 15  1  0  0  0  0
 14 21  1  0  0  0  0
 14 35  1  0  0  0  0
 14 36  1  0  0  0  0
 15 22  1  0  0  0  0
 15 37  1  0  0  0  0
 15 38  1  0  0  0  0
 16 17  1  0  0  0  0
 16 22  1  0  0  0  0
 16 39  1  0  0  0  0
 16 40  1  0  0  0  0
 17 18  1  0  0  0  0
 17 21  1  0  0  0  0
 17 41  1  6  0  0  0
 18 42  1  0  0  0  0
 18 43  1  0  0  0  0
 19 22  1  0  0  0  0
 19 44  1  0  0  0  0
 19 45  1  0  0  0  0
 20 25  1  0  0  0  0
 20 46  1  0  0  0  0
 20 47  1  0  0  0  0
M  END
>  <Chemgauss4 Score>
-4.61787986755371

>  <Number of Confs>
106

$$$$
