SAL-INS-1c7-2
 OpenBabel03242009303D

 50 53  0  0  1  0  0  0  0  0999 V2000
   13.8126   -1.1698   22.1907 C   0  0  0  0  0  0  0  0  0  0  0  0
   12.6694   -1.9644   22.2760 C   0  0  0  0  0  0  0  0  0  0  0  0
   13.8484    0.0712   22.8266 C   0  0  0  0  0  0  0  0  0  0  0  0
    9.5946   -2.4569   27.0295 C   0  0  0  0  0  0  0  0  0  0  0  0
   11.5620   -1.5180   22.9971 C   0  0  0  0  0  0  0  0  0  0  0  0
   12.7410    0.5176   23.5477 C   0  0  0  0  0  0  0  0  0  0  0  0
   10.2427   -1.4422   26.3268 C   0  0  0  0  0  0  0  0  0  0  0  0
    7.7813   -2.3953   25.4391 C   0  0  0  0  0  0  0  0  0  0  0  0
    9.2387   -5.3506   25.1048 C   0  0  0  0  0  0  0  0  0  0  0  0
   10.9768   -6.6286   25.5546 C   0  0  0  0  0  0  0  0  0  0  0  0
    8.3637   -2.9321   26.5868 C   0  0  0  0  0  0  0  0  0  0  0  0
   11.5978   -0.2770   23.6330 C   0  0  0  0  0  0  0  0  0  0  0  0
    9.6650   -0.8913   25.1712 C   0  0  0  0  0  0  0  0  0  0  0  0
    8.4253   -1.3781   24.7183 C   0  0  0  0  0  0  0  0  0  0  0  0
    9.2986   -5.6657   26.4418 C   0  0  0  0  0  0  0  0  0  0  0  0
    7.6854   -3.9886   27.3209 C   0  0  0  0  0  0  0  0  0  0  0  0
    8.4719    0.3430   21.3525 C   0  0  0  0  0  0  0  0  0  0  0  0
    7.7566   -0.8292   23.4817 C   0  0  0  0  0  0  0  0  0  0  0  0
    9.4224    1.0112   23.5324 C   0  0  0  0  0  0  0  0  0  0  0  0
   10.3891    0.2110   24.4203 C   0  0  2  0  0  0  0  0  0  0  0  0
    8.1127   -6.0907   28.6319 C   0  0  0  0  0  0  0  0  0  0  0  0
    7.4587   -0.4988   20.6172 C   0  0  0  0  0  0  0  0  0  0  0  0
   10.3830   -6.4612   26.7154 N   0  0  0  0  0  0  0  0  0  0  0  0
   10.3205   -5.9741   24.5496 N   0  0  0  0  0  0  0  0  0  0  0  0
    8.5709    0.1341   22.7301 N   0  0  0  0  0  0  0  0  0  0  0  0
    8.3609   -5.2363   27.4608 N   0  0  0  0  0  0  0  0  0  0  0  0
    6.5533   -3.7983   27.7863 O   0  0  0  0  0  0  0  0  0  0  0  0
    9.1566    1.1526   20.7223 O   0  0  0  0  0  0  0  0  0  0  0  0
    6.8793    0.4741   19.2701 Cl  0  0  0  0  0  0  0  0  0  0  0  0
   14.6753   -1.5181   21.6302 H   0  0  0  0  0  0  0  0  0  0  0  0
   12.6417   -2.9312   21.7818 H   0  0  0  0  0  0  0  0  0  0  0  0
   14.7387    0.6897   22.7613 H   0  0  0  0  0  0  0  0  0  0  0  0
   10.0590   -2.8677   27.9223 H   0  0  0  0  0  0  0  0  0  0  0  0
   10.6755   -2.1438   23.0580 H   0  0  0  0  0  0  0  0  0  0  0  0
   12.7779    1.4859   24.0398 H   0  0  0  0  0  0  0  0  0  0  0  0
   11.2026   -1.0793   26.6863 H   0  0  0  0  0  0  0  0  0  0  0  0
    6.8183   -2.7694   25.0966 H   0  0  0  0  0  0  0  0  0  0  0  0
    8.5518   -4.7611   24.5141 H   0  0  0  0  0  0  0  0  0  0  0  0
   11.8748   -7.2026   25.3758 H   0  0  0  0  0  0  0  0  0  0  0  0
    7.4819   -1.6660   22.8336 H   0  0  0  0  0  0  0  0  0  0  0  0
    6.8392   -0.3034   23.7729 H   0  0  0  0  0  0  0  0  0  0  0  0
    8.7462    1.6083   24.1586 H   0  0  0  0  0  0  0  0  0  0  0  0
    9.9702    1.7156   22.8961 H   0  0  0  0  0  0  0  0  0  0  0  0
   10.7887    0.9345   25.1831 H   0  0  0  0  0  0  0  0  0  0  0  0
    8.8203   -5.8305   29.4329 H   0  0  0  0  0  0  0  0  0  0  0  0
    7.0834   -5.9355   28.9873 H   0  0  0  0  0  0  0  0  0  0  0  0
    8.2485   -7.1456   28.3513 H   0  0  0  0  0  0  0  0  0  0  0  0
    6.6404   -0.7293   21.2894 H   0  0  0  0  0  0  0  0  0  0  0  0
    7.9473   -1.3929   20.2484 H   0  0  0  0  0  0  0  0  0  0  0  0
   10.5859   -5.9562   23.5739 H   0  0  0  0  0  0  0  0  0  0  0  0
  1  2  1  0  0  0  0
  1  3  2  0  0  0  0
  1 30  1  0  0  0  0
  2  5  2  0  0  0  0
  2 31  1  0  0  0  0
  3  6  1  0  0  0  0
  3 32  1  0  0  0  0
  4  7  2  0  0  0  0
  4 11  1  0  0  0  0
  4 33  1  0  0  0  0
  5 12  1  0  0  0  0
  5 34  1  0  0  0  0
  6 12  2  0  0  0  0
  6 35  1  0  0  0  0
  7 13  1  0  0  0  0
  7 36  1  0  0  0  0
  8 11  2  0  0  0  0
  8 14  1  0  0  0  0
  8 37  1  0  0  0  0
  9 15  2  0  0  0  0
  9 24  1  0  0  0  0
  9 38  1  0  0  0  0
 10 23  2  0  0  0  0
 10 24  1  0  0  0  0
 10 39  1  0  0  0  0
 11 16  1  0  0  0  0
 12 20  1  0  0  0  0
 13 14  2  0  0  0  0
 13 20  1  0  0  0  0
 14 18  1  0  0  0  0
 15 23  1  0  0  0  0
 15 26  1  0  0  0  0
 16 26  1  0  0  0  0
 16 27  2  0  0  0  0
 17 22  1  0  0  0  0
 17 25  1  0  0  0  0
 17 28  2  0  0  0  0
 18 25  1  0  0  0  0
 18 40  1  0  0  0  0
 18 41  1  0  0  0  0
 19 20  1  0  0  0  0
 19 25  1  0  0  0  0
 19 42  1  0  0  0  0
 19 43  1  0  0  0  0
 20 44  1  1  0  0  0
 21 26  1  0  0  0  0
 21 45  1  0  0  0  0
 21 46  1  0  0  0  0
 21 47  1  0  0  0  0
 22 29  1  0  0  0  0
 22 48  1  0  0  0  0
 22 49  1  0  0  0  0
 24 50  1  0  0  0  0
M  END
>  <Chemgauss4 Score>
-5.39098739624023

>  <Number of Confs>
137

$$$$
