DAR-DIA-fc9-8
 OpenBabel03242009303D

 33 35  0  0  1  0  0  0  0  0999 V2000
   13.3982   -0.4383   23.2633 C   0  0  0  0  0  0  0  0  0  0  0  0
   12.4528    0.0484   24.1661 C   0  0  0  0  0  0  0  0  0  0  0  0
   13.0361   -1.4103   22.3306 C   0  0  0  0  0  0  0  0  0  0  0  0
    8.1520   -4.2877   28.6040 C   0  0  0  0  0  0  0  0  0  0  0  0
   11.1454   -0.4369   24.1363 C   0  0  0  0  0  0  0  0  0  0  0  0
   11.7287   -1.8955   22.3008 C   0  0  0  0  0  0  0  0  0  0  0  0
    8.1939   -3.4293   27.5110 C   0  0  0  0  0  0  0  0  0  0  0  0
    8.0766   -5.6490   28.3571 C   0  0  0  0  0  0  0  0  0  0  0  0
    8.0840   -5.3275   26.0823 C   0  0  0  0  0  0  0  0  0  0  0  0
   10.7834   -1.4088   23.2036 C   0  0  0  0  0  0  0  0  0  0  0  0
    8.1595   -3.9511   26.2226 C   0  0  0  0  0  0  0  0  0  0  0  0
    9.2221   -3.1574   24.0959 C   0  0  0  0  0  0  0  0  0  0  0  0
    7.1372   -2.0720   24.9248 C   0  0  0  0  0  0  0  0  0  0  0  0
    7.1812   -1.2979   23.6240 C   0  0  0  0  0  0  0  0  0  0  0  0
    9.3637   -1.9365   23.1707 C   0  0  1  0  0  0  0  0  0  0  0  0
    8.0414   -6.1929   27.1200 N   0  0  0  0  0  0  0  0  0  0  0  0
    8.2015   -3.0795   25.0596 N   0  0  0  0  0  0  0  0  0  0  0  0
    9.9908   -4.1077   23.9307 O   0  0  0  0  0  0  0  0  0  0  0  0
    8.5058   -0.8437   23.4239 O   0  0  0  0  0  0  0  0  0  0  0  0
   14.4158   -0.0594   23.2858 H   0  0  0  0  0  0  0  0  0  0  0  0
   12.7343    0.8060   24.8917 H   0  0  0  0  0  0  0  0  0  0  0  0
   13.7716   -1.7887   21.6269 H   0  0  0  0  0  0  0  0  0  0  0  0
    8.1777   -3.9031   29.6172 H   0  0  0  0  0  0  0  0  0  0  0  0
   10.4156   -0.0519   24.8436 H   0  0  0  0  0  0  0  0  0  0  0  0
   11.4557   -2.6529   21.5707 H   0  0  0  0  0  0  0  0  0  0  0  0
    8.2532   -2.3565   27.6744 H   0  0  0  0  0  0  0  0  0  0  0  0
    8.0407   -6.3602   29.1757 H   0  0  0  0  0  0  0  0  0  0  0  0
    8.0542   -5.7942   25.1022 H   0  0  0  0  0  0  0  0  0  0  0  0
    7.2627   -1.3789   25.7742 H   0  0  0  0  0  0  0  0  0  0  0  0
    6.1592   -2.5690   25.0358 H   0  0  0  0  0  0  0  0  0  0  0  0
    6.8467   -1.9037   22.7727 H   0  0  0  0  0  0  0  0  0  0  0  0
    6.5259   -0.4230   23.6879 H   0  0  0  0  0  0  0  0  0  0  0  0
    9.1791   -2.2947   22.1421 H   0  0  0  0  0  0  0  0  0  0  0  0
  1  2  1  0  0  0  0
  1  3  2  0  0  0  0
  1 20  1  0  0  0  0
  2  5  2  0  0  0  0
  2 21  1  0  0  0  0
  3  6  1  0  0  0  0
  3 22  1  0  0  0  0
  4  7  2  0  0  0  0
  4  8  1  0  0  0  0
  4 23  1  0  0  0  0
  5 10  1  0  0  0  0
  5 24  1  0  0  0  0
  6 10  2  0  0  0  0
  6 25  1  0  0  0  0
  7 11  1  0  0  0  0
  7 26  1  0  0  0  0
  8 16  2  0  0  0  0
  8 27  1  0  0  0  0
  9 11  2  0  0  0  0
  9 16  1  0  0  0  0
  9 28  1  0  0  0  0
 10 15  1  0  0  0  0
 11 17  1  0  0  0  0
 12 15  1  0  0  0  0
 12 17  1  0  0  0  0
 12 18  2  0  0  0  0
 13 14  1  0  0  0  0
 13 17  1  0  0  0  0
 13 29  1  0  0  0  0
 13 30  1  0  0  0  0
 14 19  1  0  0  0  0
 14 31  1  0  0  0  0
 14 32  1  0  0  0  0
 15 19  1  0  0  0  0
 15 33  1  6  0  0  0
M  END
>  <Chemgauss4 Score>
-6.55911827087402

>  <Number of Confs>
14

$$$$
