GIA-UNK-595-2
 OpenBabel03242009303D

 37 38  0  0  0  0  0  0  0  0999 V2000
   14.3585   -0.2046   22.7727 C   0  0  0  0  0  0  0  0  0  0  0  0
   14.0625   -1.4220   22.1596 C   0  0  0  0  0  0  0  0  0  0  0  0
   13.3428    0.5387   23.3740 C   0  0  0  0  0  0  0  0  0  0  0  0
   12.7507   -1.8960   22.1476 C   0  0  0  0  0  0  0  0  0  0  0  0
   12.0310    0.0646   23.3621 C   0  0  0  0  0  0  0  0  0  0  0  0
   11.7349   -1.1527   22.7489 C   0  0  0  0  0  0  0  0  0  0  0  0
   10.3545   -1.6517   22.7362 C   0  0  0  0  0  0  0  0  0  0  0  0
    8.2227   -5.4437   27.1207 C   0  0  0  0  0  0  0  0  0  0  0  0
   10.9722   -4.3087   25.0481 C   0  0  0  0  0  0  0  0  0  0  0  0
    8.6247   -4.5172   24.1394 C   0  0  0  0  0  0  0  0  0  0  0  0
   10.8780   -2.7934   24.8655 C   0  0  0  0  0  0  0  0  0  0  0  0
    8.5827   -2.9969   23.9807 C   0  0  0  0  0  0  0  0  0  0  0  0
    9.5924   -4.9435   25.2469 C   0  0  0  0  0  0  0  0  0  0  0  0
    8.1524   -3.6301   28.8257 C   0  0  0  0  0  0  0  0  0  0  0  0
    9.9376   -2.4609   23.7955 N   0  0  0  0  0  0  0  0  0  0  0  0
    7.7774   -4.9308   28.3209 N   0  0  0  0  0  0  0  0  0  0  0  0
    9.6603   -1.3039   21.7822 O   0  0  0  0  0  0  0  0  0  0  0  0
    7.9287   -6.5406   26.6572 O   0  0  0  0  0  0  0  0  0  0  0  0
    9.0538   -4.5442   26.5051 O   0  0  0  0  0  0  0  0  0  0  0  0
   15.3799    0.1645   22.7819 H   0  0  0  0  0  0  0  0  0  0  0  0
   14.8534   -2.0005   21.6912 H   0  0  0  0  0  0  0  0  0  0  0  0
   13.5734    1.4864   23.8517 H   0  0  0  0  0  0  0  0  0  0  0  0
   12.5311   -2.8460   21.6670 H   0  0  0  0  0  0  0  0  0  0  0  0
   11.2476    0.6523   23.8336 H   0  0  0  0  0  0  0  0  0  0  0  0
   11.4641   -4.7617   24.1775 H   0  0  0  0  0  0  0  0  0  0  0  0
   11.6180   -4.5432   25.9061 H   0  0  0  0  0  0  0  0  0  0  0  0
    7.6165   -4.9003   24.3543 H   0  0  0  0  0  0  0  0  0  0  0  0
    8.9209   -4.9840   23.1904 H   0  0  0  0  0  0  0  0  0  0  0  0
   10.5759   -2.3248   25.8075 H   0  0  0  0  0  0  0  0  0  0  0  0
   11.8540   -2.3785   24.5884 H   0  0  0  0  0  0  0  0  0  0  0  0
    7.9981   -2.7219   23.0950 H   0  0  0  0  0  0  0  0  0  0  0  0
    8.0873   -2.5543   24.8481 H   0  0  0  0  0  0  0  0  0  0  0  0
    9.6859   -6.0368   25.2550 H   0  0  0  0  0  0  0  0  0  0  0  0
    9.0625   -3.7219   29.4368 H   0  0  0  0  0  0  0  0  0  0  0  0
    8.3444   -2.9509   27.9820 H   0  0  0  0  0  0  0  0  0  0  0  0
    7.3358   -3.2269   29.4426 H   0  0  0  0  0  0  0  0  0  0  0  0
    7.1504   -5.4995   28.8815 H   0  0  0  0  0  0  0  0  0  0  0  0
  1  2  1  0  0  0  0
  1  3  2  0  0  0  0
  1 20  1  0  0  0  0
  2  4  2  0  0  0  0
  2 21  1  0  0  0  0
  3  5  1  0  0  0  0
  3 22  1  0  0  0  0
  4  6  1  0  0  0  0
  4 23  1  0  0  0  0
  5  6  2  0  0  0  0
  5 24  1  0  0  0  0
  6  7  1  0  0  0  0
  7 15  1  0  0  0  0
  7 17  2  0  0  0  0
  8 16  1  0  0  0  0
  8 18  2  0  0  0  0
  8 19  1  0  0  0  0
  9 11  1  0  0  0  0
  9 13  1  0  0  0  0
  9 25  1  0  0  0  0
  9 26  1  0  0  0  0
 10 12  1  0  0  0  0
 10 13  1  0  0  0  0
 10 27  1  0  0  0  0
 10 28  1  0  0  0  0
 11 15  1  0  0  0  0
 11 29  1  0  0  0  0
 11 30  1  0  0  0  0
 12 15  1  0  0  0  0
 12 31  1  0  0  0  0
 12 32  1  0  0  0  0
 13 19  1  0  0  0  0
 13 33  1  0  0  0  0
 14 16  1  0  0  0  0
 14 34  1  0  0  0  0
 14 35  1  0  0  0  0
 14 36  1  0  0  0  0
 16 37  1  0  0  0  0
M  END
>  <Chemgauss4 Score>
-5.26461315155029

>  <Number of Confs>
46

$$$$
