DAN-LON-a5f-7
 OpenBabel03242009303D

 43 44  0  0  1  0  0  0  0  0999 V2000
   11.0649    0.0782   24.2155 C   0  0  0  0  0  0  0  0  0  0  0  0
   10.2704   -1.0465   23.9931 C   0  0  0  0  0  0  0  0  0  0  0  0
   12.2264    0.2706   23.4674 C   0  0  0  0  0  0  0  0  0  0  0  0
   11.7990   -1.7865   22.2746 C   0  0  0  0  0  0  0  0  0  0  0  0
   10.6374   -1.9788   23.0227 C   0  0  0  0  0  0  0  0  0  0  0  0
   12.5935   -0.6618   22.4971 C   0  0  0  0  0  0  0  0  0  0  0  0
    7.4277   -4.5685   27.4389 C   0  0  0  0  0  0  0  0  0  0  0  0
    9.2515   -5.3240   25.8427 C   0  0  0  0  0  0  0  0  0  0  0  0
    9.9908   -4.3955   24.8691 C   0  0  0  0  0  0  0  0  0  0  0  0
    7.8701   -4.3629   23.6952 C   0  0  0  0  0  0  0  0  0  0  0  0
    7.0516   -4.5575   24.9882 C   0  0  1  0  0  0  0  0  0  0  0  0
    5.2321   -5.8901   26.0915 C   0  0  0  0  0  0  0  0  0  0  0  0
    5.0804   -5.3422   23.6460 C   0  0  0  0  0  0  0  0  0  0  0  0
    9.7824   -3.1898   22.7847 C   0  0  0  0  0  0  0  0  0  0  0  0
    7.9762   -5.4293   28.5484 C   0  0  0  0  0  0  0  0  0  0  0  0
    6.0199   -5.6713   24.8028 C   0  0  0  0  0  0  0  0  0  0  0  0
    7.9151   -4.8153   26.1545 N   0  0  0  0  0  0  0  0  0  0  0  0
    9.0942   -3.6194   23.9979 N   0  0  0  0  0  0  0  0  0  0  0  0
    6.5916   -3.7004   27.7030 O   0  0  0  0  0  0  0  0  0  0  0  0
   14.0272   -0.4244   21.5752 Cl  0  0  0  0  0  0  0  0  0  0  0  0
    6.7159   -5.5375   29.7724 Cl  0  0  0  0  0  0  0  0  0  0  0  0
   10.7788    0.8039   24.9714 H   0  0  0  0  0  0  0  0  0  0  0  0
    9.3671   -1.1884   24.5807 H   0  0  0  0  0  0  0  0  0  0  0  0
   12.8362    1.1516   23.6518 H   0  0  0  0  0  0  0  0  0  0  0  0
   12.0805   -2.5160   21.5188 H   0  0  0  0  0  0  0  0  0  0  0  0
    9.1069   -6.3092   25.3817 H   0  0  0  0  0  0  0  0  0  0  0  0
    9.8611   -5.4793   26.7348 H   0  0  0  0  0  0  0  0  0  0  0  0
   10.5990   -3.6862   25.4432 H   0  0  0  0  0  0  0  0  0  0  0  0
   10.6827   -5.0130   24.2815 H   0  0  0  0  0  0  0  0  0  0  0  0
    8.1080   -5.3261   23.2239 H   0  0  0  0  0  0  0  0  0  0  0  0
    7.2504   -3.8029   22.9832 H   0  0  0  0  0  0  0  0  0  0  0  0
    6.5085   -3.6260   25.1974 H   0  0  0  0  0  0  0  0  0  0  0  0
    4.6767   -4.9902   26.3776 H   0  0  0  0  0  0  0  0  0  0  0  0
    5.9017   -6.1514   26.9177 H   0  0  0  0  0  0  0  0  0  0  0  0
    4.5135   -6.7077   25.9716 H   0  0  0  0  0  0  0  0  0  0  0  0
    4.5190   -4.4212   23.8371 H   0  0  0  0  0  0  0  0  0  0  0  0
    4.3598   -6.1521   23.4903 H   0  0  0  0  0  0  0  0  0  0  0  0
    5.6411   -5.2098   22.7146 H   0  0  0  0  0  0  0  0  0  0  0  0
    9.0239   -2.9830   22.0219 H   0  0  0  0  0  0  0  0  0  0  0  0
   10.3841   -4.0312   22.4253 H   0  0  0  0  0  0  0  0  0  0  0  0
    8.8566   -4.9509   28.9623 H   0  0  0  0  0  0  0  0  0  0  0  0
    8.1967   -6.4143   28.1531 H   0  0  0  0  0  0  0  0  0  0  0  0
    6.5550   -6.5971   24.5622 H   0  0  0  0  0  0  0  0  0  0  0  0
  1  2  2  0  0  0  0
  1  3  1  0  0  0  0
  1 22  1  0  0  0  0
  2  5  1  0  0  0  0
  2 23  1  0  0  0  0
  3  6  2  0  0  0  0
  3 24  1  0  0  0  0
  4  5  2  0  0  0  0
  4  6  1  0  0  0  0
  4 25  1  0  0  0  0
  5 14  1  0  0  0  0
  6 20  1  0  0  0  0
  7 15  1  0  0  0  0
  7 17  1  0  0  0  0
  7 19  2  0  0  0  0
  8  9  1  0  0  0  0
  8 17  1  0  0  0  0
  8 26  1  0  0  0  0
  8 27  1  0  0  0  0
  9 18  1  0  0  0  0
  9 28  1  0  0  0  0
  9 29  1  0  0  0  0
 10 11  1  0  0  0  0
 10 18  1  0  0  0  0
 10 30  1  0  0  0  0
 10 31  1  0  0  0  0
 11 16  1  0  0  0  0
 11 17  1  0  0  0  0
 11 32  1  1  0  0  0
 12 16  1  0  0  0  0
 12 33  1  0  0  0  0
 12 34  1  0  0  0  0
 12 35  1  0  0  0  0
 13 16  1  0  0  0  0
 13 36  1  0  0  0  0
 13 37  1  0  0  0  0
 13 38  1  0  0  0  0
 14 18  1  0  0  0  0
 14 39  1  0  0  0  0
 14 40  1  0  0  0  0
 15 21  1  0  0  0  0
 15 41  1  0  0  0  0
 15 42  1  0  0  0  0
 16 43  1  0  0  0  0
M  END
>  <Chemgauss4 Score>
-4.76003456115723

>  <Number of Confs>
135

$$$$
