CHR-SOS-597-3
 OpenBabel03242009303D

 43 45  0  0  0  0  0  0  0  0999 V2000
    7.5411   -4.6936   28.9714 C   0  0  0  0  0  0  0  0  0  0  0  0
    8.1071   -3.6480   28.2505 C   0  0  0  0  0  0  0  0  0  0  0  0
    7.6492   -5.9732   28.4511 C   0  0  0  0  0  0  0  0  0  0  0  0
    8.8086   -5.2250   26.6142 C   0  0  0  0  0  0  0  0  0  0  0  0
    7.2231   -2.7838   23.9273 C   0  0  0  0  0  0  0  0  0  0  0  0
    8.7547   -3.9103   27.0483 C   0  0  0  0  0  0  0  0  0  0  0  0
    8.0837   -1.8888   23.3269 C   0  0  0  0  0  0  0  0  0  0  0  0
    6.2690   -0.9202   24.5805 C   0  0  0  0  0  0  0  0  0  0  0  0
   10.0159   -2.9738   25.0800 C   0  0  0  0  0  0  0  0  0  0  0  0
   12.9193   -1.0785   22.7566 C   0  0  0  0  0  0  0  0  0  0  0  0
   12.1962    0.2669   22.8170 C   0  0  0  0  0  0  0  0  0  0  0  0
   11.8363   -2.1352   22.5510 C   0  0  0  0  0  0  0  0  0  0  0  0
   10.7106   -0.0402   22.6434 C   0  0  0  0  0  0  0  0  0  0  0  0
   10.5494   -1.4986   23.0939 C   0  0  0  0  0  0  0  0  0  0  0  0
    5.3251    0.0154   25.2304 C   0  0  0  0  0  0  0  0  0  0  0  0
    9.3021   -2.1418   22.4843 C   0  0  0  0  0  0  0  0  0  0  0  0
   10.4771   -1.6050   24.6258 C   0  0  0  0  0  0  0  0  0  0  0  0
    8.2706   -6.2669   27.2870 N   0  0  0  0  0  0  0  0  0  0  0  0
    6.1822   -2.2302   24.6469 N   0  0  0  0  0  0  0  0  0  0  0  0
    9.3401   -2.8670   26.2922 N   0  0  0  0  0  0  0  0  0  0  0  0
   10.2330   -3.9940   24.4347 O   0  0  0  0  0  0  0  0  0  0  0  0
    7.5775   -0.2862   23.6690 S   0  0  0  0  0  0  0  0  0  0  0  0
    7.0315   -4.5125   29.9108 H   0  0  0  0  0  0  0  0  0  0  0  0
    8.0378   -2.6336   28.6342 H   0  0  0  0  0  0  0  0  0  0  0  0
    7.2238   -6.8229   28.9748 H   0  0  0  0  0  0  0  0  0  0  0  0
    9.3006   -5.4925   25.6838 H   0  0  0  0  0  0  0  0  0  0  0  0
    7.3083   -3.8611   23.8733 H   0  0  0  0  0  0  0  0  0  0  0  0
   13.6573   -1.1056   21.9484 H   0  0  0  0  0  0  0  0  0  0  0  0
   13.4569   -1.2563   23.6950 H   0  0  0  0  0  0  0  0  0  0  0  0
   12.3793    0.7464   23.7855 H   0  0  0  0  0  0  0  0  0  0  0  0
   12.5526    0.9540   22.0427 H   0  0  0  0  0  0  0  0  0  0  0  0
   11.7409   -2.3434   21.4776 H   0  0  0  0  0  0  0  0  0  0  0  0
   12.0895   -3.0785   23.0460 H   0  0  0  0  0  0  0  0  0  0  0  0
   10.0825    0.6552   23.2099 H   0  0  0  0  0  0  0  0  0  0  0  0
   10.4466    0.0675   21.5835 H   0  0  0  0  0  0  0  0  0  0  0  0
    5.6596    0.2685   26.2485 H   0  0  0  0  0  0  0  0  0  0  0  0
    5.2240    0.9556   24.6643 H   0  0  0  0  0  0  0  0  0  0  0  0
    4.3108   -0.4099   25.3037 H   0  0  0  0  0  0  0  0  0  0  0  0
    9.4668   -3.2176   22.3755 H   0  0  0  0  0  0  0  0  0  0  0  0
    9.1492   -1.7485   21.4752 H   0  0  0  0  0  0  0  0  0  0  0  0
    9.7824   -0.8497   24.9929 H   0  0  0  0  0  0  0  0  0  0  0  0
   11.4673   -1.4036   25.0341 H   0  0  0  0  0  0  0  0  0  0  0  0
    9.2488   -1.9356   26.6926 H   0  0  0  0  0  0  0  0  0  0  0  0
  1  2  2  0  0  0  0
  1  3  1  0  0  0  0
  1 23  1  0  0  0  0
  2  6  1  0  0  0  0
  2 24  1  0  0  0  0
  3 18  2  0  0  0  0
  3 25  1  0  0  0  0
  4  6  2  0  0  0  0
  4 18  1  0  0  0  0
  4 26  1  0  0  0  0
  5  7  2  0  0  0  0
  5 19  1  0  0  0  0
  5 27  1  0  0  0  0
  6 20  1  0  0  0  0
  7 16  1  0  0  0  0
  7 22  1  0  0  0  0
  8 15  1  0  0  0  0
  8 19  2  0  0  0  0
  8 22  1  0  0  0  0
  9 17  1  0  0  0  0
  9 20  1  0  0  0  0
  9 21  2  0  0  0  0
 10 11  1  0  0  0  0
 10 12  1  0  0  0  0
 10 28  1  0  0  0  0
 10 29  1  0  0  0  0
 11 13  1  0  0  0  0
 11 30  1  0  0  0  0
 11 31  1  0  0  0  0
 12 14  1  0  0  0  0
 12 32  1  0  0  0  0
 12 33  1  0  0  0  0
 13 14  1  0  0  0  0
 13 34  1  0  0  0  0
 13 35  1  0  0  0  0
 14 16  1  0  0  0  0
 14 17  1  0  0  0  0
 15 36  1  0  0  0  0
 15 37  1  0  0  0  0
 15 38  1  0  0  0  0
 16 39  1  0  0  0  0
 16 40  1  0  0  0  0
 17 41  1  0  0  0  0
 17 42  1  0  0  0  0
 20 43  1  0  0  0  0
M  END
>  <Chemgauss4 Score>
-5.66640520095825

>  <Number of Confs>
200

$$$$
