HEI-REL-0c9-1
 OpenBabel03242009303D

 51 53  0  0  1  0  0  0  0  0999 V2000
   11.2120   -4.2258   24.7579 C   0  0  0  0  0  0  0  0  0  0  0  0
   10.3294   -4.8832   25.6067 C   0  0  0  0  0  0  0  0  0  0  0  0
    8.8624   -2.9671   25.5249 C   0  0  0  0  0  0  0  0  0  0  0  0
   10.9295   -2.9284   24.2941 C   0  0  0  0  0  0  0  0  0  0  0  0
    9.7298   -2.2719   24.6581 C   0  0  0  0  0  0  0  0  0  0  0  0
    9.1554   -4.2521   25.9927 C   0  0  0  0  0  0  0  0  0  0  0  0
    5.1467    1.3067   19.4246 C   0  0  0  0  0  0  0  0  0  0  0  0
   11.9219   -2.2763   23.3648 C   0  0  0  0  0  0  0  0  0  0  0  0
   11.7437   -0.7656   23.3391 C   0  0  0  0  0  0  0  0  0  0  0  0
    6.7671    1.5644   21.3648 C   0  0  0  0  0  0  0  0  0  0  0  0
    6.1976   -0.6640   20.4850 C   0  0  0  0  0  0  0  0  0  0  0  0
    8.2319    1.1303   21.4423 C   0  0  0  0  0  0  0  0  0  0  0  0
    7.6729   -1.0532   20.5735 C   0  0  0  0  0  0  0  0  0  0  0  0
   10.2781   -0.3703   23.1523 C   0  0  1  0  0  0  0  0  0  0  0  0
    5.0362    0.5686   18.1143 C   0  0  0  0  0  0  0  0  0  0  0  0
    8.4173   -0.1688   24.8206 C   0  0  0  0  0  0  0  0  0  0  0  0
    9.7435   -0.7200   21.7614 C   0  0  0  0  0  0  0  0  0  0  0  0
    9.4389   -0.9922   24.1852 N   0  0  0  0  0  0  0  0  0  0  0  0
    6.0372    0.7840   20.3613 N   0  0  0  0  0  0  0  0  0  0  0  0
    8.3408   -0.3199   21.6587 N   0  0  0  0  0  0  0  0  0  0  0  0
    8.8515   -6.5490   27.3105 N   0  0  0  0  0  0  0  0  0  0  0  0
    4.4593    2.3141   19.6102 O   0  0  0  0  0  0  0  0  0  0  0  0
    7.9929   -4.3377   28.3196 O   0  0  0  0  0  0  0  0  0  0  0  0
    6.8069   -5.3270   26.3291 O   0  0  0  0  0  0  0  0  0  0  0  0
    8.0389   -5.0671   27.0603 S   0  0  0  0  0  0  0  0  0  0  0  0
   12.1293   -4.7265   24.4572 H   0  0  0  0  0  0  0  0  0  0  0  0
   10.5670   -5.8829   25.9587 H   0  0  0  0  0  0  0  0  0  0  0  0
    7.9277   -2.5143   25.8489 H   0  0  0  0  0  0  0  0  0  0  0  0
   12.9453   -2.5040   23.6864 H   0  0  0  0  0  0  0  0  0  0  0  0
   11.7915   -2.6947   22.3599 H   0  0  0  0  0  0  0  0  0  0  0  0
   12.1081   -0.3394   24.2838 H   0  0  0  0  0  0  0  0  0  0  0  0
   12.3637   -0.3338   22.5446 H   0  0  0  0  0  0  0  0  0  0  0  0
    6.2663    1.3968   22.3264 H   0  0  0  0  0  0  0  0  0  0  0  0
    6.7204    2.6355   21.1584 H   0  0  0  0  0  0  0  0  0  0  0  0
    5.7294   -1.1793   19.6400 H   0  0  0  0  0  0  0  0  0  0  0  0
    5.6628   -0.9722   21.3919 H   0  0  0  0  0  0  0  0  0  0  0  0
    8.7490    1.4260   20.5252 H   0  0  0  0  0  0  0  0  0  0  0  0
    8.6984    1.6583   22.2772 H   0  0  0  0  0  0  0  0  0  0  0  0
    7.7293   -2.1262   20.7708 H   0  0  0  0  0  0  0  0  0  0  0  0
    8.1615   -0.8603   19.6143 H   0  0  0  0  0  0  0  0  0  0  0  0
   10.2278    0.7213   23.2596 H   0  0  0  0  0  0  0  0  0  0  0  0
    4.2599   -0.1849   18.1958 H   0  0  0  0  0  0  0  0  0  0  0  0
    5.9881    0.0978   17.8903 H   0  0  0  0  0  0  0  0  0  0  0  0
    4.7868    1.2749   17.3290 H   0  0  0  0  0  0  0  0  0  0  0  0
    8.3457    0.7962   24.2975 H   0  0  0  0  0  0  0  0  0  0  0  0
    7.4473   -0.6853   24.7713 H   0  0  0  0  0  0  0  0  0  0  0  0
    8.6877    0.0037   25.8728 H   0  0  0  0  0  0  0  0  0  0  0  0
   10.3527   -0.1799   21.0402 H   0  0  0  0  0  0  0  0  0  0  0  0
    9.8479   -1.7959   21.6405 H   0  0  0  0  0  0  0  0  0  0  0  0
    9.2725   -6.7181   28.2322 H   0  0  0  0  0  0  0  0  0  0  0  0
    8.4626   -7.3921   26.8708 H   0  0  0  0  0  0  0  0  0  0  0  0
  1  2  2  0  0  0  0
  1  4  1  0  0  0  0
  1 26  1  0  0  0  0
  2  6  1  0  0  0  0
  2 27  1  0  0  0  0
  3  5  1  0  0  0  0
  3  6  2  0  0  0  0
  3 28  1  0  0  0  0
  4  5  2  0  0  0  0
  4  8  1  0  0  0  0
  5 18  1  0  0  0  0
  6 25  1  0  0  0  0
  7 15  1  0  0  0  0
  7 19  1  0  0  0  0
  7 22  2  0  0  0  0
  8  9  1  0  0  0  0
  8 29  1  0  0  0  0
  8 30  1  0  0  0  0
  9 14  1  0  0  0  0
  9 31  1  0  0  0  0
  9 32  1  0  0  0  0
 10 12  1  0  0  0  0
 10 19  1  0  0  0  0
 10 33  1  0  0  0  0
 10 34  1  0  0  0  0
 11 13  1  0  0  0  0
 11 19  1  0  0  0  0
 11 35  1  0  0  0  0
 11 36  1  0  0  0  0
 12 20  1  0  0  0  0
 12 37  1  0  0  0  0
 12 38  1  0  0  0  0
 13 20  1  0  0  0  0
 13 39  1  0  0  0  0
 13 40  1  0  0  0  0
 14 17  1  0  0  0  0
 14 18  1  0  0  0  0
 14 41  1  1  0  0  0
 15 42  1  0  0  0  0
 15 43  1  0  0  0  0
 15 44  1  0  0  0  0
 16 18  1  0  0  0  0
 16 45  1  0  0  0  0
 16 46  1  0  0  0  0
 16 47  1  0  0  0  0
 17 20  1  0  0  0  0
 17 48  1  0  0  0  0
 17 49  1  0  0  0  0
 21 25  1  0  0  0  0
 21 50  1  0  0  0  0
 21 51  1  0  0  0  0
 23 25  2  0  0  0  0
 24 25  2  0  0  0  0
M  END
>  <Chemgauss4 Score>
-5.75841474533081

>  <Number of Confs>
37

$$$$
