JOH-MEM-5e3-6
 OpenBabel03242009303D

 32 34  0  0  0  0  0  0  0  0999 V2000
   11.0107   -2.3560   24.1365 C   0  0  0  0  0  0  0  0  0  0  0  0
    8.7964   -2.1089   22.3812 C   0  0  0  0  0  0  0  0  0  0  0  0
    9.8094   -3.0299   24.4243 C   0  0  0  0  0  0  0  0  0  0  0  0
    9.3666   -3.8787   25.4529 C   0  0  0  0  0  0  0  0  0  0  0  0
    8.7207   -2.8934   23.5380 C   0  0  0  0  0  0  0  0  0  0  0  0
   11.0910   -1.5704   22.9811 C   0  0  0  0  0  0  0  0  0  0  0  0
   10.0016   -1.4503   22.1198 C   0  0  0  0  0  0  0  0  0  0  0  0
    8.0772   -4.2236   25.1807 C   0  0  0  0  0  0  0  0  0  0  0  0
    6.2343   -5.5281   26.0398 C   0  0  0  0  0  0  0  0  0  0  0  0
    9.8375   -4.5067   26.7119 C   0  0  0  0  0  0  0  0  0  0  0  0
    8.5679   -5.3187   27.1672 C   0  0  0  0  0  0  0  0  0  0  0  0
    5.2761   -4.5954   25.3423 C   0  0  0  0  0  0  0  0  0  0  0  0
   13.2191   -1.6197   21.9206 C   0  0  0  0  0  0  0  0  0  0  0  0
    7.6622   -3.6449   24.0346 N   0  0  0  0  0  0  0  0  0  0  0  0
    7.5276   -5.0574   26.1199 N   0  0  0  0  0  0  0  0  0  0  0  0
    5.8375   -6.6072   26.4809 O   0  0  0  0  0  0  0  0  0  0  0  0
   10.0986   -0.6801   20.9968 O   0  0  0  0  0  0  0  0  0  0  0  0
   12.2584   -0.9196   22.7069 O   0  0  0  0  0  0  0  0  0  0  0  0
   11.8651   -2.4440   24.8021 H   0  0  0  0  0  0  0  0  0  0  0  0
    7.9479   -2.0155   21.7108 H   0  0  0  0  0  0  0  0  0  0  0  0
   10.6838   -5.1768   26.5347 H   0  0  0  0  0  0  0  0  0  0  0  0
   10.1068   -3.7553   27.4599 H   0  0  0  0  0  0  0  0  0  0  0  0
    8.7674   -6.3942   27.2134 H   0  0  0  0  0  0  0  0  0  0  0  0
    8.1931   -4.9779   28.1376 H   0  0  0  0  0  0  0  0  0  0  0  0
    5.2688   -4.8227   24.2815 H   0  0  0  0  0  0  0  0  0  0  0  0
    5.5988   -3.5713   25.5001 H   0  0  0  0  0  0  0  0  0  0  0  0
    4.2828   -4.7312   25.7578 H   0  0  0  0  0  0  0  0  0  0  0  0
   14.1008   -0.9906   21.7759 H   0  0  0  0  0  0  0  0  0  0  0  0
   12.7806   -1.8788   20.9536 H   0  0  0  0  0  0  0  0  0  0  0  0
   13.5085   -2.5340   22.4440 H   0  0  0  0  0  0  0  0  0  0  0  0
    6.7517   -3.7337   23.6035 H   0  0  0  0  0  0  0  0  0  0  0  0
    9.2626   -0.7002   20.5069 H   0  0  0  0  0  0  0  0  0  0  0  0
  1  3  2  0  0  0  0
  1  6  1  0  0  0  0
  1 19  1  0  0  0  0
  2  5  2  0  0  0  0
  2  7  1  0  0  0  0
  2 20  1  0  0  0  0
  3  4  1  0  0  0  0
  3  5  1  0  0  0  0
  4  8  2  0  0  0  0
  4 10  1  0  0  0  0
  5 14  1  0  0  0  0
  6  7  2  0  0  0  0
  6 18  1  0  0  0  0
  7 17  1  0  0  0  0
  8 14  1  0  0  0  0
  8 15  1  0  0  0  0
  9 12  1  0  0  0  0
  9 15  1  0  0  0  0
  9 16  2  0  0  0  0
 10 11  1  0  0  0  0
 10 21  1  0  0  0  0
 10 22  1  0  0  0  0
 11 15  1  0  0  0  0
 11 23  1  0  0  0  0
 11 24  1  0  0  0  0
 12 25  1  0  0  0  0
 12 26  1  0  0  0  0
 12 27  1  0  0  0  0
 13 18  1  0  0  0  0
 13 28  1  0  0  0  0
 13 29  1  0  0  0  0
 13 30  1  0  0  0  0
 14 31  1  0  0  0  0
 17 32  1  0  0  0  0
M  END
>  <Chemgauss4 Score>
-6.77653551101685

>  <Number of Confs>
4

$$$$
