GIA-UNK-5ec-4
 OpenBabel03242009303D

 33 34  0  0  0  0  0  0  0  0999 V2000
   13.0174   -0.6251   23.0314 C   0  0  0  0  0  0  0  0  0  0  0  0
   12.1965    0.0389   23.9429 C   0  0  0  0  0  0  0  0  0  0  0  0
   12.5083   -1.6799   22.2739 C   0  0  0  0  0  0  0  0  0  0  0  0
   10.8664   -0.3521   24.0970 C   0  0  0  0  0  0  0  0  0  0  0  0
   11.1782   -2.0709   22.4280 C   0  0  0  0  0  0  0  0  0  0  0  0
   10.3573   -1.4069   23.3395 C   0  0  0  0  0  0  0  0  0  0  0  0
    7.7705   -5.2906   27.3094 C   0  0  0  0  0  0  0  0  0  0  0  0
    8.6586   -3.0592   26.7393 C   0  0  0  0  0  0  0  0  0  0  0  0
    6.7566   -4.0484   25.3734 C   0  0  0  0  0  0  0  0  0  0  0  0
    9.6127   -3.4230   25.6049 C   0  0  0  0  0  0  0  0  0  0  0  0
    7.7620   -4.3709   24.2705 C   0  0  0  0  0  0  0  0  0  0  0  0
    7.3996   -3.9253   26.7521 C   0  0  0  0  0  0  0  0  0  0  0  0
    8.8994   -3.4136   24.2999 N   0  0  0  0  0  0  0  0  0  0  0  0
    8.0920   -6.2447   26.6133 O   0  0  0  0  0  0  0  0  0  0  0  0
    8.0508   -0.9923   24.4717 O   0  0  0  0  0  0  0  0  0  0  0  0
    8.1165   -2.1221   22.2207 O   0  0  0  0  0  0  0  0  0  0  0  0
    7.7030   -5.4029   29.0625 S   0  0  0  0  0  0  0  0  0  0  0  0
    8.6750   -1.9034   23.5373 S   0  0  0  0  0  0  0  0  0  0  0  0
   14.0534   -0.3216   22.9114 H   0  0  0  0  0  0  0  0  0  0  0  0
   12.5928    0.8595   24.5336 H   0  0  0  0  0  0  0  0  0  0  0  0
   13.1479   -2.1971   21.5649 H   0  0  0  0  0  0  0  0  0  0  0  0
   10.2358    0.1714   24.8106 H   0  0  0  0  0  0  0  0  0  0  0  0
   10.7925   -2.8947   21.8337 H   0  0  0  0  0  0  0  0  0  0  0  0
    9.1859   -3.1330   27.6945 H   0  0  0  0  0  0  0  0  0  0  0  0
    8.3549   -2.0141   26.6166 H   0  0  0  0  0  0  0  0  0  0  0  0
    6.2660   -3.0953   25.1320 H   0  0  0  0  0  0  0  0  0  0  0  0
    5.9704   -4.8144   25.3803 H   0  0  0  0  0  0  0  0  0  0  0  0
   10.4278   -2.6859   25.5803 H   0  0  0  0  0  0  0  0  0  0  0  0
   10.0646   -4.4112   25.7727 H   0  0  0  0  0  0  0  0  0  0  0  0
    8.1393   -5.4006   24.3727 H   0  0  0  0  0  0  0  0  0  0  0  0
    7.2509   -4.3024   23.2979 H   0  0  0  0  0  0  0  0  0  0  0  0
    6.6893   -3.5074   27.4593 H   0  0  0  0  0  0  0  0  0  0  0  0
    8.0766   -6.6873   29.1554 H   0  0  0  0  0  0  0  0  0  0  0  0
  1  2  1  0  0  0  0
  1  3  2  0  0  0  0
  1 19  1  0  0  0  0
  2  4  2  0  0  0  0
  2 20  1  0  0  0  0
  3  5  1  0  0  0  0
  3 21  1  0  0  0  0
  4  6  1  0  0  0  0
  4 22  1  0  0  0  0
  5  6  2  0  0  0  0
  5 23  1  0  0  0  0
  6 18  1  0  0  0  0
  7 12  1  0  0  0  0
  7 14  2  0  0  0  0
  7 17  1  0  0  0  0
  8 10  1  0  0  0  0
  8 12  1  0  0  0  0
  8 24  1  0  0  0  0
  8 25  1  0  0  0  0
  9 11  1  0  0  0  0
  9 12  1  0  0  0  0
  9 26  1  0  0  0  0
  9 27  1  0  0  0  0
 10 13  1  0  0  0  0
 10 28  1  0  0  0  0
 10 29  1  0  0  0  0
 11 13  1  0  0  0  0
 11 30  1  0  0  0  0
 11 31  1  0  0  0  0
 12 32  1  0  0  0  0
 13 18  1  0  0  0  0
 15 18  2  0  0  0  0
 16 18  2  0  0  0  0
 17 33  1  0  0  0  0
M  END
>  <Chemgauss4 Score>
-5.01516485214233

>  <Number of Confs>
27

$$$$
