TRY-UNI-714-20
 OpenBabel03242009303D

 32 33  0  0  0  0  0  0  0  0999 V2000
   11.3929    1.3165   23.0398 C   0  0  0  0  0  0  0  0  0  0  0  0
   11.6206   -2.3939   22.8469 C   0  0  0  0  0  0  0  0  0  0  0  0
   11.7034   -1.0468   22.4948 C   0  0  0  0  0  0  0  0  0  0  0  0
   11.1424   -2.7576   24.1058 C   0  0  0  0  0  0  0  0  0  0  0  0
    5.6091   -5.5396   24.2027 C   0  0  0  0  0  0  0  0  0  0  0  0
   10.8300   -0.4270   24.6605 C   0  0  0  0  0  0  0  0  0  0  0  0
    5.8631   -6.7114   24.8971 C   0  0  0  0  0  0  0  0  0  0  0  0
    7.6999   -5.8030   25.9360 C   0  0  0  0  0  0  0  0  0  0  0  0
   11.3082   -0.0633   23.4015 C   0  0  0  0  0  0  0  0  0  0  0  0
   10.7472   -1.7741   25.0126 C   0  0  0  0  0  0  0  0  0  0  0  0
    6.4643   -4.4627   24.4086 C   0  0  0  0  0  0  0  0  0  0  0  0
    7.5321   -4.5887   25.2901 C   0  0  0  0  0  0  0  0  0  0  0  0
    9.5309   -3.5169   26.3861 C   0  0  0  0  0  0  0  0  0  0  0  0
    6.2143   -3.1874   23.6725 C   0  0  0  0  0  0  0  0  0  0  0  0
   10.2361   -2.1632   26.3586 C   0  0  0  0  0  0  0  0  0  0  0  0
   11.4616    2.4371   22.7459 N   0  0  0  0  0  0  0  0  0  0  0  0
    6.8901   -6.8714   25.7616 N   0  0  0  0  0  0  0  0  0  0  0  0
    8.4297   -3.5220   25.5337 N   0  0  0  0  0  0  0  0  0  0  0  0
    9.9299   -4.4393   27.0897 O   0  0  0  0  0  0  0  0  0  0  0  0
   11.9292   -3.1599   22.1415 H   0  0  0  0  0  0  0  0  0  0  0  0
   12.0778   -0.7789   21.5096 H   0  0  0  0  0  0  0  0  0  0  0  0
   11.0810   -3.8099   24.3707 H   0  0  0  0  0  0  0  0  0  0  0  0
    4.7674   -5.4739   23.5218 H   0  0  0  0  0  0  0  0  0  0  0  0
   10.5213    0.3357   25.3725 H   0  0  0  0  0  0  0  0  0  0  0  0
    5.2257   -7.5805   24.7717 H   0  0  0  0  0  0  0  0  0  0  0  0
    8.5145   -5.9629   26.6362 H   0  0  0  0  0  0  0  0  0  0  0  0
    5.5531   -2.5358   24.2554 H   0  0  0  0  0  0  0  0  0  0  0  0
    7.1515   -2.6514   23.4788 H   0  0  0  0  0  0  0  0  0  0  0  0
    5.7477   -3.3773   22.6979 H   0  0  0  0  0  0  0  0  0  0  0  0
   11.0625   -2.1949   27.0877 H   0  0  0  0  0  0  0  0  0  0  0  0
    9.5315   -1.4029   26.7339 H   0  0  0  0  0  0  0  0  0  0  0  0
    8.2493   -2.6579   25.0267 H   0  0  0  0  0  0  0  0  0  0  0  0
  1  9  1  0  0  0  0
  1 16  3  0  0  0  0
  2  3  1  0  0  0  0
  2  4  2  0  0  0  0
  2 20  1  0  0  0  0
  3  9  2  0  0  0  0
  3 21  1  0  0  0  0
  4 10  1  0  0  0  0
  4 22  1  0  0  0  0
  5  7  2  0  0  0  0
  5 11  1  0  0  0  0
  5 23  1  0  0  0  0
  6  9  1  0  0  0  0
  6 10  2  0  0  0  0
  6 24  1  0  0  0  0
  7 17  1  0  0  0  0
  7 25  1  0  0  0  0
  8 12  1  0  0  0  0
  8 17  2  0  0  0  0
  8 26  1  0  0  0  0
 10 15  1  0  0  0  0
 11 12  2  0  0  0  0
 11 14  1  0  0  0  0
 12 18  1  0  0  0  0
 13 15  1  0  0  0  0
 13 18  1  0  0  0  0
 13 19  2  0  0  0  0
 14 27  1  0  0  0  0
 14 28  1  0  0  0  0
 14 29  1  0  0  0  0
 15 30  1  0  0  0  0
 15 31  1  0  0  0  0
 18 32  1  0  0  0  0
M  END
>  <Chemgauss4 Score>
-4.8555154800415

>  <Number of Confs>
20

$$$$
