DAV-AUT-fa2-5
 OpenBabel03242009303D

 45 47  0  0  1  0  0  0  0  0999 V2000
    9.4810   -2.4894   23.5596 C   0  0  0  0  0  0  0  0  0  0  0  0
   10.8030   -1.2734   25.1630 C   0  0  0  0  0  0  0  0  0  0  0  0
    9.2151   -2.9684   25.9163 C   0  0  0  0  0  0  0  0  0  0  0  0
    8.8204   -3.2161   24.5740 C   0  0  0  0  0  0  0  0  0  0  0  0
   10.1824   -1.9797   26.1889 C   0  0  0  0  0  0  0  0  0  0  0  0
   10.4583   -1.5345   23.8471 C   0  0  0  0  0  0  0  0  0  0  0  0
    5.9034   -4.0371   22.7649 C   0  0  0  0  0  0  0  0  0  0  0  0
    7.6549   -5.8117   22.4774 C   0  0  0  0  0  0  0  0  0  0  0  0
    6.9871   -4.6598   25.3495 C   0  0  0  0  0  0  0  0  0  0  0  0
    5.4128   -4.3943   21.3676 C   0  0  0  0  0  0  0  0  0  0  0  0
    7.0674   -6.0683   21.0954 C   0  0  0  0  0  0  0  0  0  0  0  0
    8.5599   -3.7139   27.0729 C   0  0  1  0  0  0  0  0  0  0  0  0
    7.3874   -4.3718   22.9180 C   0  0  0  0  0  0  0  0  0  0  0  0
    7.8212   -4.9547   26.5752 C   0  0  0  0  0  0  0  0  0  0  0  0
    9.5259   -4.1222   28.1938 C   0  0  0  0  0  0  0  0  0  0  0  0
   12.9780   -1.0457   22.6919 C   0  0  0  0  0  0  0  0  0  0  0  0
   10.7532   -1.3188   21.2306 N   0  0  0  0  0  0  0  0  0  0  0  0
    7.8279   -4.1517   24.2729 N   0  0  0  0  0  0  0  0  0  0  0  0
   11.1508    0.7575   22.8515 O   0  0  0  0  0  0  0  0  0  0  0  0
    5.6723   -5.7672   21.0751 O   0  0  0  0  0  0  0  0  0  0  0  0
   10.5205   -1.7034   27.4602 F   0  0  0  0  0  0  0  0  0  0  0  0
    8.7001   -5.9496   26.2890 F   0  0  0  0  0  0  0  0  0  0  0  0
    7.0107   -5.4268   27.5572 F   0  0  0  0  0  0  0  0  0  0  0  0
   11.2431   -0.6686   22.5502 S   0  0  1  0  0  0  0  0  0  0  0  0
    9.2368   -2.6614   22.5130 H   0  0  0  0  0  0  0  0  0  0  0  0
   11.5517   -0.5240   25.4069 H   0  0  0  0  0  0  0  0  0  0  0  0
    5.7842   -2.9589   22.9094 H   0  0  0  0  0  0  0  0  0  0  0  0
    5.3015   -4.5379   23.5259 H   0  0  0  0  0  0  0  0  0  0  0  0
    7.2679   -6.5292   23.2021 H   0  0  0  0  0  0  0  0  0  0  0  0
    8.7381   -5.9501   22.4233 H   0  0  0  0  0  0  0  0  0  0  0  0
    6.4507   -5.5517   25.0160 H   0  0  0  0  0  0  0  0  0  0  0  0
    6.2324   -3.9150   25.6180 H   0  0  0  0  0  0  0  0  0  0  0  0
    4.3420   -4.1906   21.2481 H   0  0  0  0  0  0  0  0  0  0  0  0
    5.9445   -3.7915   20.6237 H   0  0  0  0  0  0  0  0  0  0  0  0
    7.5566   -5.4231   20.3590 H   0  0  0  0  0  0  0  0  0  0  0  0
    7.2214   -7.1055   20.7767 H   0  0  0  0  0  0  0  0  0  0  0  0
    7.7776   -3.0619   27.5267 H   0  0  0  0  0  0  0  0  0  0  0  0
    7.9704   -3.6892   22.2619 H   0  0  0  0  0  0  0  0  0  0  0  0
   10.3057   -4.7613   27.7875 H   0  0  0  0  0  0  0  0  0  0  0  0
    8.9818   -4.6625   28.9643 H   0  0  0  0  0  0  0  0  0  0  0  0
    9.9773   -3.2332   28.6269 H   0  0  0  0  0  0  0  0  0  0  0  0
   13.5103   -0.5223   21.8961 H   0  0  0  0  0  0  0  0  0  0  0  0
   13.3248   -0.7088   23.6699 H   0  0  0  0  0  0  0  0  0  0  0  0
   13.1051   -2.1246   22.5916 H   0  0  0  0  0  0  0  0  0  0  0  0
   11.1504   -0.8900   20.3894 H   0  0  0  0  0  0  0  0  0  0  0  0
  1  4  1  0  0  0  0
  1  6  2  0  0  0  0
  1 25  1  0  0  0  0
  2  5  2  0  0  0  0
  2  6  1  0  0  0  0
  2 26  1  0  0  0  0
  3  4  2  0  0  0  0
  3  5  1  0  0  0  0
  3 12  1  0  0  0  0
  4 18  1  0  0  0  0
  5 21  1  0  0  0  0
  6 24  1  0  0  0  0
  7 10  1  0  0  0  0
  7 13  1  0  0  0  0
  7 27  1  0  0  0  0
  7 28  1  0  0  0  0
  8 11  1  0  0  0  0
  8 13  1  0  0  0  0
  8 29  1  0  0  0  0
  8 30  1  0  0  0  0
  9 14  1  0  0  0  0
  9 18  1  0  0  0  0
  9 31  1  0  0  0  0
  9 32  1  0  0  0  0
 10 20  1  0  0  0  0
 10 33  1  0  0  0  0
 10 34  1  0  0  0  0
 11 20  1  0  0  0  0
 11 35  1  0  0  0  0
 11 36  1  0  0  0  0
 12 14  1  0  0  0  0
 12 15  1  0  0  0  0
 12 37  1  1  0  0  0
 13 18  1  0  0  0  0
 13 38  1  0  0  0  0
 14 22  1  0  0  0  0
 14 23  1  0  0  0  0
 15 39  1  0  0  0  0
 15 40  1  0  0  0  0
 15 41  1  0  0  0  0
 16 24  1  0  0  0  0
 16 42  1  0  0  0  0
 16 43  1  0  0  0  0
 16 44  1  0  0  0  0
 17 24  2  0  0  0  0
 17 45  1  0  0  0  0
 24 19  2  1  0  0  0
M  END
>  <Chemgauss4 Score>
-5.07347345352173

>  <Number of Confs>
13

$$$$
