SAM-UNK-83e-3
 OpenBabel03242009303D

 39 40  0  0  0  0  0  0  0  0999 V2000
    9.8920   -1.4036   22.9270 C   0  0  0  0  0  0  0  0  0  0  0  0
   10.9836   -3.0705   24.3151 C   0  0  0  0  0  0  0  0  0  0  0  0
    6.4744   -2.4915   23.6323 C   0  0  0  0  0  0  0  0  0  0  0  0
    8.6382   -1.9339   23.2909 C   0  0  0  0  0  0  0  0  0  0  0  0
    9.7513   -3.6134   24.6903 C   0  0  0  0  0  0  0  0  0  0  0  0
    7.2918   -1.6085   22.9650 C   0  0  0  0  0  0  0  0  0  0  0  0
    8.5969   -3.0243   24.1624 C   0  0  0  0  0  0  0  0  0  0  0  0
   11.0552   -1.9827   23.4472 C   0  0  0  0  0  0  0  0  0  0  0  0
    9.6379   -4.7439   25.5896 C   0  0  0  0  0  0  0  0  0  0  0  0
    6.8287   -0.5784   22.1168 C   0  0  0  0  0  0  0  0  0  0  0  0
    8.9601   -4.7099   26.7348 C   0  0  0  0  0  0  0  0  0  0  0  0
    6.5813   -0.7168   20.7951 C   0  0  0  0  0  0  0  0  0  0  0  0
    5.8943   -0.0007   18.5835 C   0  0  0  0  0  0  0  0  0  0  0  0
    5.4196    1.2323   17.8601 C   0  0  0  0  0  0  0  0  0  0  0  0
    7.8159   -6.6564   29.9507 C   0  0  0  0  0  0  0  0  0  0  0  0
    7.2707   -3.3413   24.3520 N   0  0  0  0  0  0  0  0  0  0  0  0
    6.1215    0.2296   19.9336 N   0  0  0  0  0  0  0  0  0  0  0  0
    8.8053   -5.7395   27.6097 N   0  0  0  0  0  0  0  0  0  0  0  0
    6.0719   -1.0635   17.9925 O   0  0  0  0  0  0  0  0  0  0  0  0
    6.9272   -4.4653   28.8591 O   0  0  0  0  0  0  0  0  0  0  0  0
    6.3962   -6.6777   27.7612 O   0  0  0  0  0  0  0  0  0  0  0  0
   12.2513   -1.4841   23.1056 F   0  0  0  0  0  0  0  0  0  0  0  0
    7.3133   -5.8091   28.4733 S   0  0  0  0  0  0  0  0  0  0  0  0
    9.9665   -0.5561   22.2517 H   0  0  0  0  0  0  0  0  0  0  0  0
   11.9080   -3.4956   24.7001 H   0  0  0  0  0  0  0  0  0  0  0  0
    5.3982   -2.5957   23.6632 H   0  0  0  0  0  0  0  0  0  0  0  0
   10.1112   -5.6650   25.2793 H   0  0  0  0  0  0  0  0  0  0  0  0
    6.6194    0.4074   22.5531 H   0  0  0  0  0  0  0  0  0  0  0  0
    8.4360   -3.8298   27.0886 H   0  0  0  0  0  0  0  0  0  0  0  0
    6.7267   -1.6594   20.2805 H   0  0  0  0  0  0  0  0  0  0  0  0
    6.2820    1.7851   17.4772 H   0  0  0  0  0  0  0  0  0  0  0  0
    4.8620    1.8652   18.5558 H   0  0  0  0  0  0  0  0  0  0  0  0
    4.7765    0.9692   17.0153 H   0  0  0  0  0  0  0  0  0  0  0  0
    6.9443   -6.7671   30.5976 H   0  0  0  0  0  0  0  0  0  0  0  0
    8.2102   -7.6341   29.6696 H   0  0  0  0  0  0  0  0  0  0  0  0
    8.5853   -6.0609   30.4442 H   0  0  0  0  0  0  0  0  0  0  0  0
    6.9311   -4.0920   24.9372 H   0  0  0  0  0  0  0  0  0  0  0  0
    5.9330    1.1608   20.2998 H   0  0  0  0  0  0  0  0  0  0  0  0
    9.2588   -6.6591   27.3737 H   0  0  0  0  0  0  0  0  0  0  0  0
  1  4  1  0  0  0  0
  1  8  2  0  0  0  0
  1 24  1  0  0  0  0
  2  5  2  0  0  0  0
  2  8  1  0  0  0  0
  2 25  1  0  0  0  0
  3  6  2  0  0  0  0
  3 16  1  0  0  0  0
  3 26  1  0  0  0  0
  4  6  1  0  0  0  0
  4  7  2  0  0  0  0
  5  7  1  0  0  0  0
  5  9  1  0  0  0  0
  6 10  1  0  0  0  0
  7 16  1  0  0  0  0
  8 22  1  0  0  0  0
  9 11  2  3  0  0  0
  9 27  1  0  0  0  0
 10 12  2  3  0  0  0
 10 28  1  0  0  0  0
 11 18  1  0  0  0  0
 11 29  1  0  0  0  0
 12 17  1  0  0  0  0
 12 30  1  0  0  0  0
 13 14  1  0  0  0  0
 13 17  1  0  0  0  0
 13 19  2  0  0  0  0
 14 31  1  0  0  0  0
 14 32  1  0  0  0  0
 14 33  1  0  0  0  0
 15 23  1  0  0  0  0
 15 34  1  0  0  0  0
 15 35  1  0  0  0  0
 15 36  1  0  0  0  0
 16 37  1  0  0  0  0
 17 38  1  0  0  0  0
 18 23  1  0  0  0  0
 18 39  1  0  0  0  0
 20 23  2  0  0  0  0
 21 23  2  0  0  0  0
M  END
>  <Chemgauss4 Score>
-7.9613242149353

>  <Number of Confs>
200

$$$$
