JOH-MEM-5e3-5
 OpenBabel03242009303D

 48 51  0  0  1  0  0  0  0  0999 V2000
    9.0098   -3.4934   26.8107 C   0  0  0  0  0  0  0  0  0  0  0  0
   10.0686   -2.8532   26.1597 C   0  0  0  0  0  0  0  0  0  0  0  0
    9.3732   -3.7457   24.0090 C   0  0  0  0  0  0  0  0  0  0  0  0
    8.2989   -4.4013   24.6384 C   0  0  0  0  0  0  0  0  0  0  0  0
    7.2510   -5.2327   24.2079 C   0  0  0  0  0  0  0  0  0  0  0  0
    8.1366   -4.2623   26.0326 C   0  0  0  0  0  0  0  0  0  0  0  0
   10.2490   -2.9759   24.7830 C   0  0  0  0  0  0  0  0  0  0  0  0
    6.5087   -5.5649   25.3008 C   0  0  0  0  0  0  0  0  0  0  0  0
    7.7929   -0.4725   22.7130 C   0  0  0  0  0  0  0  0  0  0  0  0
    4.5665   -6.8379   25.9667 C   0  0  0  0  0  0  0  0  0  0  0  0
    6.7033   -5.8527   22.9764 C   0  0  0  0  0  0  0  0  0  0  0  0
    5.4597   -6.6418   23.5327 C   0  0  0  0  0  0  0  0  0  0  0  0
    9.1875   -0.5603   23.2426 C   0  0  2  0  0  0  0  0  0  0  0  0
    9.9587    0.7290   22.9552 C   0  0  2  0  0  0  0  0  0  0  0  0
   11.4501    0.5493   23.2490 C   0  0  2  0  0  0  0  0  0  0  0  0
   11.9527   -0.6915   22.5072 C   0  0  2  0  0  0  0  0  0  0  0  0
   11.1063   -1.9291   22.8280 C   0  0  2  0  0  0  0  0  0  0  0  0
    3.4699   -7.7236   25.4302 C   0  0  0  0  0  0  0  0  0  0  0  0
    7.0186   -4.9954   26.4127 N   0  0  0  0  0  0  0  0  0  0  0  0
    5.4466   -6.3810   25.0089 N   0  0  0  0  0  0  0  0  0  0  0  0
    7.4971   -0.2365   21.5510 O   0  0  0  0  0  0  0  0  0  0  0  0
    4.6206   -6.5789   27.1694 O   0  0  0  0  0  0  0  0  0  0  0  0
    9.7307   -1.6728   22.5303 O   0  0  0  0  0  0  0  0  0  0  0  0
    6.8909   -0.6887   23.7014 O   0  0  0  0  0  0  0  0  0  0  0  0
    9.4385    1.8023   23.7320 O   0  0  0  0  0  0  0  0  0  0  0  0
   11.6324    0.3912   24.6570 O   0  0  0  0  0  0  0  0  0  0  0  0
   13.3172   -0.9452   22.8126 O   0  0  0  0  0  0  0  0  0  0  0  0
   11.2923   -2.3380   24.1804 O   0  0  0  0  0  0  0  0  0  0  0  0
    8.8735   -3.3949   27.8825 H   0  0  0  0  0  0  0  0  0  0  0  0
   10.7597   -2.2505   26.7448 H   0  0  0  0  0  0  0  0  0  0  0  0
    9.5219   -3.8356   22.9364 H   0  0  0  0  0  0  0  0  0  0  0  0
    6.3904   -5.0963   22.2507 H   0  0  0  0  0  0  0  0  0  0  0  0
    7.4230   -6.5362   22.5166 H   0  0  0  0  0  0  0  0  0  0  0  0
    4.5216   -6.2827   23.0972 H   0  0  0  0  0  0  0  0  0  0  0  0
    5.5505   -7.7191   23.3598 H   0  0  0  0  0  0  0  0  0  0  0  0
    9.1236   -0.7832   24.3138 H   0  0  0  0  0  0  0  0  0  0  0  0
    9.8438    0.9999   21.8932 H   0  0  0  0  0  0  0  0  0  0  0  0
   12.0168    1.4420   22.9620 H   0  0  0  0  0  0  0  0  0  0  0  0
   11.8829   -0.4941   21.4298 H   0  0  0  0  0  0  0  0  0  0  0  0
   11.4377   -2.7594   22.1941 H   0  0  0  0  0  0  0  0  0  0  0  0
    3.8037   -8.7556   25.4548 H   0  0  0  0  0  0  0  0  0  0  0  0
    3.2441   -7.4308   24.4099 H   0  0  0  0  0  0  0  0  0  0  0  0
    2.5846   -7.6050   26.0465 H   0  0  0  0  0  0  0  0  0  0  0  0
    6.6631   -5.0779   27.3559 H   0  0  0  0  0  0  0  0  0  0  0  0
    5.9680   -0.6334   23.3736 H   0  0  0  0  0  0  0  0  0  0  0  0
    9.9634    2.5871   23.5085 H   0  0  0  0  0  0  0  0  0  0  0  0
   12.5845    0.2811   24.7981 H   0  0  0  0  0  0  0  0  0  0  0  0
   13.8176   -0.1619   22.5318 H   0  0  0  0  0  0  0  0  0  0  0  0
  1  2  2  0  0  0  0
  1  6  1  0  0  0  0
  1 29  1  0  0  0  0
  2  7  1  0  0  0  0
  2 30  1  0  0  0  0
  3  4  1  0  0  0  0
  3  7  2  0  0  0  0
  3 31  1  0  0  0  0
  4  5  1  0  0  0  0
  4  6  2  0  0  0  0
  5  8  2  0  0  0  0
  5 11  1  0  0  0  0
  6 19  1  0  0  0  0
  7 28  1  0  0  0  0
  8 19  1  0  0  0  0
  8 20  1  0  0  0  0
  9 13  1  0  0  0  0
  9 21  2  0  0  0  0
  9 24  1  0  0  0  0
 10 18  1  0  0  0  0
 10 20  1  0  0  0  0
 10 22  2  0  0  0  0
 11 12  1  0  0  0  0
 11 32  1  0  0  0  0
 11 33  1  0  0  0  0
 12 20  1  0  0  0  0
 12 34  1  0  0  0  0
 12 35  1  0  0  0  0
 13 14  1  0  0  0  0
 13 23  1  0  0  0  0
 13 36  1  1  0  0  0
 14 15  1  0  0  0  0
 14 25  1  0  0  0  0
 14 37  1  6  0  0  0
 15 16  1  0  0  0  0
 15 26  1  0  0  0  0
 15 38  1  6  0  0  0
 16 17  1  0  0  0  0
 16 27  1  0  0  0  0
 16 39  1  6  0  0  0
 17 23  1  0  0  0  0
 17 28  1  0  0  0  0
 17 40  1  6  0  0  0
 18 41  1  0  0  0  0
 18 42  1  0  0  0  0
 18 43  1  0  0  0  0
 19 44  1  0  0  0  0
 24 45  1  0  0  0  0
 25 46  1  0  0  0  0
 26 47  1  0  0  0  0
 27 48  1  0  0  0  0
M  END
>  <Chemgauss4 Score>
-5.12870073318481

>  <Number of Confs>
90

$$$$
