SAL-INS-1c7-3
 OpenBabel03242009303D

 49 51  0  0  1  0  0  0  0  0999 V2000
   10.2298   -4.1310   25.5499 C   0  0  0  0  0  0  0  0  0  0  0  0
   10.5177   -3.6063   24.2908 C   0  0  0  0  0  0  0  0  0  0  0  0
    8.7675   -2.2630   25.9900 C   0  0  0  0  0  0  0  0  0  0  0  0
   12.1873   -0.2011   23.0974 C   0  0  0  0  0  0  0  0  0  0  0  0
   13.6505   -1.0358   21.6765 C   0  0  0  0  0  0  0  0  0  0  0  0
    9.3538   -3.4605   26.3984 C   0  0  0  0  0  0  0  0  0  0  0  0
    9.9311   -2.4027   23.8666 C   0  0  0  0  0  0  0  0  0  0  0  0
    9.0532   -1.7199   24.7282 C   0  0  0  0  0  0  0  0  0  0  0  0
   11.6570   -1.2540   22.3898 C   0  0  0  0  0  0  0  0  0  0  0  0
    9.0501   -4.0086   27.7108 C   0  0  0  0  0  0  0  0  0  0  0  0
    8.8828    1.4876   22.7370 C   0  0  0  0  0  0  0  0  0  0  0  0
    8.3950   -0.4214   24.3303 C   0  0  0  0  0  0  0  0  0  0  0  0
    9.1860   -0.8562   22.0178 C   0  0  0  0  0  0  0  0  0  0  0  0
   10.2593   -1.8495   22.4920 C   0  0  2  0  0  0  0  0  0  0  0  0
    5.6888   -4.8260   26.9905 C   0  0  0  0  0  0  0  0  0  0  0  0
    7.2160   -6.7681   26.4989 C   0  0  0  0  0  0  0  0  0  0  0  0
    7.6066   -5.4938   29.1220 C   0  0  0  0  0  0  0  0  0  0  0  0
    8.3930    2.4306   23.8077 C   0  0  0  0  0  0  0  0  0  0  0  0
    7.1191   -5.2646   26.7119 C   0  0  0  0  0  0  0  0  0  0  0  0
   12.5730   -1.7694   21.5072 N   0  0  0  0  0  0  0  0  0  0  0  0
   13.4650   -0.0735   22.6298 N   0  0  0  0  0  0  0  0  0  0  0  0
    8.8630    0.1267   23.0511 N   0  0  0  0  0  0  0  0  0  0  0  0
    7.9632   -4.8918   27.8450 N   0  0  0  0  0  0  0  0  0  0  0  0
    9.7877   -3.6690   28.6456 O   0  0  0  0  0  0  0  0  0  0  0  0
    9.2764    1.9459   21.6616 O   0  0  0  0  0  0  0  0  0  0  0  0
    7.7378    3.8371   22.9774 Cl  0  0  0  0  0  0  0  0  0  0  0  0
   10.6934   -5.0648   25.8571 H   0  0  0  0  0  0  0  0  0  0  0  0
   11.2005   -4.1445   23.6377 H   0  0  0  0  0  0  0  0  0  0  0  0
    8.0832   -1.7415   26.6565 H   0  0  0  0  0  0  0  0  0  0  0  0
   11.7896    0.4477   23.8645 H   0  0  0  0  0  0  0  0  0  0  0  0
   14.5865   -1.1474   21.1475 H   0  0  0  0  0  0  0  0  0  0  0  0
    7.3155   -0.5828   24.2251 H   0  0  0  0  0  0  0  0  0  0  0  0
    8.5568    0.3098   25.1271 H   0  0  0  0  0  0  0  0  0  0  0  0
    9.5087   -0.3603   21.0956 H   0  0  0  0  0  0  0  0  0  0  0  0
    8.2537   -1.3885   21.7886 H   0  0  0  0  0  0  0  0  0  0  0  0
   10.2146   -2.7126   21.7334 H   0  0  0  0  0  0  0  0  0  0  0  0
    5.2907   -5.3333   27.8754 H   0  0  0  0  0  0  0  0  0  0  0  0
    5.6276   -3.7452   27.1602 H   0  0  0  0  0  0  0  0  0  0  0  0
    5.0374   -5.0631   26.1421 H   0  0  0  0  0  0  0  0  0  0  0  0
    6.8439   -7.3092   27.3758 H   0  0  0  0  0  0  0  0  0  0  0  0
    8.2541   -7.0718   26.3286 H   0  0  0  0  0  0  0  0  0  0  0  0
    6.6207   -7.0896   25.6370 H   0  0  0  0  0  0  0  0  0  0  0  0
    6.8906   -4.8443   29.6469 H   0  0  0  0  0  0  0  0  0  0  0  0
    7.1486   -6.4787   28.9478 H   0  0  0  0  0  0  0  0  0  0  0  0
    8.5113   -5.6135   29.7362 H   0  0  0  0  0  0  0  0  0  0  0  0
    9.2319    2.7218   24.4289 H   0  0  0  0  0  0  0  0  0  0  0  0
    7.6145    1.9384   24.3787 H   0  0  0  0  0  0  0  0  0  0  0  0
    7.4960   -4.7453   25.8240 H   0  0  0  0  0  0  0  0  0  0  0  0
   14.1478    0.6081   22.9325 H   0  0  0  0  0  0  0  0  0  0  0  0
  1  2  2  0  0  0  0
  1  6  1  0  0  0  0
  1 27  1  0  0  0  0
  2  7  1  0  0  0  0
  2 28  1  0  0  0  0
  3  6  2  0  0  0  0
  3  8  1  0  0  0  0
  3 29  1  0  0  0  0
  4  9  2  0  0  0  0
  4 21  1  0  0  0  0
  4 30  1  0  0  0  0
  5 20  2  0  0  0  0
  5 21  1  0  0  0  0
  5 31  1  0  0  0  0
  6 10  1  0  0  0  0
  7  8  2  0  0  0  0
  7 14  1  0  0  0  0
  8 12  1  0  0  0  0
  9 14  1  0  0  0  0
  9 20  1  0  0  0  0
 10 23  1  0  0  0  0
 10 24  2  0  0  0  0
 11 18  1  0  0  0  0
 11 22  1  0  0  0  0
 11 25  2  0  0  0  0
 12 22  1  0  0  0  0
 12 32  1  0  0  0  0
 12 33  1  0  0  0  0
 13 14  1  0  0  0  0
 13 22  1  0  0  0  0
 13 34  1  0  0  0  0
 13 35  1  0  0  0  0
 14 36  1  6  0  0  0
 15 19  1  0  0  0  0
 15 37  1  0  0  0  0
 15 38  1  0  0  0  0
 15 39  1  0  0  0  0
 16 19  1  0  0  0  0
 16 40  1  0  0  0  0
 16 41  1  0  0  0  0
 16 42  1  0  0  0  0
 17 23  1  0  0  0  0
 17 43  1  0  0  0  0
 17 44  1  0  0  0  0
 17 45  1  0  0  0  0
 18 26  1  0  0  0  0
 18 46  1  0  0  0  0
 18 47  1  0  0  0  0
 19 23  1  0  0  0  0
 19 48  1  0  0  0  0
 21 49  1  0  0  0  0
M  END
>  <Chemgauss4 Score>
-6.35277605056763

>  <Number of Confs>
200

$$$$
