NIM-UNI-36e-1
 OpenBabel03242009303D

 34 36  0  0  1  0  0  0  0  0999 V2000
   11.5917   -0.0025   22.9798 C   0  0  0  0  0  0  0  0  0  0  0  0
   10.9093   -0.3494   24.1405 C   0  0  0  0  0  0  0  0  0  0  0  0
   12.0386   -1.0260   22.1598 C   0  0  0  0  0  0  0  0  0  0  0  0
   11.1844   -2.6382   23.5559 C   0  0  0  0  0  0  0  0  0  0  0  0
   10.6976   -1.6903   24.4415 C   0  0  0  0  0  0  0  0  0  0  0  0
    9.9924   -1.3298   26.8553 C   0  0  0  0  0  0  0  0  0  0  0  0
    7.8913   -3.6917   24.0298 C   0  0  0  0  0  0  0  0  0  0  0  0
    7.9381   -5.4897   27.0062 C   0  0  0  0  0  0  0  0  0  0  0  0
    8.5390   -5.5877   25.5791 C   0  0  0  0  0  0  0  0  0  0  0  0
    8.6635   -3.2217   27.1447 C   0  0  2  0  0  0  0  0  0  0  0  0
    9.5187   -3.4116   25.9014 C   0  0  2  0  0  0  0  0  0  0  0  0
    7.2527   -4.6683   23.0747 C   0  0  0  0  0  0  0  0  0  0  0  0
   11.8519   -2.3396   22.4188 N   0  0  0  0  0  0  0  0  0  0  0  0
    9.3179   -2.1411   27.8117 N   0  0  0  0  0  0  0  0  0  0  0  0
    8.5767   -4.4757   27.8826 N   0  0  0  0  0  0  0  0  0  0  0  0
   10.0036   -2.0761   25.6210 N   0  0  0  0  0  0  0  0  0  0  0  0
    8.7253   -4.2417   25.0043 N   0  0  0  0  0  0  0  0  0  0  0  0
   10.4869   -0.2377   27.1022 O   0  0  0  0  0  0  0  0  0  0  0  0
    7.6624   -2.4870   23.9025 O   0  0  0  0  0  0  0  0  0  0  0  0
   11.7681    1.0363   22.7252 H   0  0  0  0  0  0  0  0  0  0  0  0
   10.5471    0.4324   24.8029 H   0  0  0  0  0  0  0  0  0  0  0  0
   12.5769   -0.8079   21.2433 H   0  0  0  0  0  0  0  0  0  0  0  0
   11.0501   -3.7007   23.7362 H   0  0  0  0  0  0  0  0  0  0  0  0
    6.8687   -5.2570   26.9231 H   0  0  0  0  0  0  0  0  0  0  0  0
    8.0147   -6.4672   27.4944 H   0  0  0  0  0  0  0  0  0  0  0  0
    9.5265   -6.0628   25.6221 H   0  0  0  0  0  0  0  0  0  0  0  0
    7.8986   -6.2164   24.9578 H   0  0  0  0  0  0  0  0  0  0  0  0
    7.6577   -2.8517   26.8986 H   0  0  0  0  0  0  0  0  0  0  0  0
   10.4278   -3.9866   26.1417 H   0  0  0  0  0  0  0  0  0  0  0  0
    6.3010   -4.9926   23.4825 H   0  0  0  0  0  0  0  0  0  0  0  0
    7.9110   -5.5214   22.9458 H   0  0  0  0  0  0  0  0  0  0  0  0
    7.0993   -4.1801   22.1177 H   0  0  0  0  0  0  0  0  0  0  0  0
    9.3042   -1.9769   28.8133 H   0  0  0  0  0  0  0  0  0  0  0  0
    8.0090   -4.3479   28.7193 H   0  0  0  0  0  0  0  0  0  0  0  0
  1  2  2  0  0  0  0
  1  3  1  0  0  0  0
  1 20  1  0  0  0  0
  2  5  1  0  0  0  0
  2 21  1  0  0  0  0
  3 13  2  0  0  0  0
  3 22  1  0  0  0  0
  4  5  2  0  0  0  0
  4 13  1  0  0  0  0
  4 23  1  0  0  0  0
  5 16  1  0  0  0  0
  6 14  1  0  0  0  0
  6 16  1  0  0  0  0
  6 18  2  0  0  0  0
  7 12  1  0  0  0  0
  7 17  1  0  0  0  0
  7 19  2  0  0  0  0
  8  9  1  0  0  0  0
  8 15  1  0  0  0  0
  8 24  1  0  0  0  0
  8 25  1  0  0  0  0
  9 17  1  0  0  0  0
  9 26  1  0  0  0  0
  9 27  1  0  0  0  0
 10 11  1  0  0  0  0
 10 14  1  0  0  0  0
 10 15  1  0  0  0  0
 10 28  1  6  0  0  0
 11 16  1  0  0  0  0
 11 17  1  0  0  0  0
 11 29  1  1  0  0  0
 12 30  1  0  0  0  0
 12 31  1  0  0  0  0
 12 32  1  0  0  0  0
 14 33  1  0  0  0  0
 15 34  1  0  0  0  0
M  END
>  <Chemgauss4 Score>
-5.12243413925171

>  <Number of Confs>
2

$$$$
