TRY-UNI-714-1
 OpenBabel03242009303D

 39 40  0  0  0  0  0  0  0  0999 V2000
    8.7030   -4.9914   28.0465 C   0  0  0  0  0  0  0  0  0  0  0  0
    8.7221   -2.7592   27.5032 C   0  0  0  0  0  0  0  0  0  0  0  0
    8.9078   -4.3671   25.7607 C   0  0  0  0  0  0  0  0  0  0  0  0
    8.8323   -5.3706   26.7201 C   0  0  0  0  0  0  0  0  0  0  0  0
    8.8525   -3.0339   26.1514 C   0  0  0  0  0  0  0  0  0  0  0  0
    9.4408   -0.6983   25.4157 C   0  0  0  0  0  0  0  0  0  0  0  0
   13.0221   -1.3935   22.3977 C   0  0  0  0  0  0  0  0  0  0  0  0
   13.0863   -0.1215   23.2374 C   0  0  0  0  0  0  0  0  0  0  0  0
   11.7507   -1.4468   21.5564 C   0  0  0  0  0  0  0  0  0  0  0  0
   11.8372    0.0482   24.0992 C   0  0  0  0  0  0  0  0  0  0  0  0
   10.4993   -1.2791   22.4153 C   0  0  0  0  0  0  0  0  0  0  0  0
   10.5563    0.0041   23.2551 C   0  0  0  0  0  0  0  0  0  0  0  0
    9.0485   -4.7201   24.3131 C   0  0  0  0  0  0  0  0  0  0  0  0
    9.3199    0.1221   24.1444 C   0  0  0  0  0  0  0  0  0  0  0  0
    8.6457   -3.7070   28.4642 N   0  0  0  0  0  0  0  0  0  0  0  0
    8.8835   -6.7330   26.3746 N   0  0  0  0  0  0  0  0  0  0  0  0
    8.9242   -1.9752   25.2150 N   0  0  0  0  0  0  0  0  0  0  0  0
    9.9337   -0.2466   26.4441 O   0  0  0  0  0  0  0  0  0  0  0  0
    8.6390   -5.7290   28.8411 H   0  0  0  0  0  0  0  0  0  0  0  0
    8.6727   -1.7383   27.8701 H   0  0  0  0  0  0  0  0  0  0  0  0
   13.8996   -1.4480   21.7435 H   0  0  0  0  0  0  0  0  0  0  0  0
   13.0592   -2.2685   23.0582 H   0  0  0  0  0  0  0  0  0  0  0  0
   13.9754   -0.1479   23.8777 H   0  0  0  0  0  0  0  0  0  0  0  0
   13.1943    0.7475   22.5767 H   0  0  0  0  0  0  0  0  0  0  0  0
   11.7811   -0.6550   20.7978 H   0  0  0  0  0  0  0  0  0  0  0  0
   11.7045   -2.4012   21.0197 H   0  0  0  0  0  0  0  0  0  0  0  0
   11.8124   -0.7452   24.8573 H   0  0  0  0  0  0  0  0  0  0  0  0
   11.8970    1.0007   24.6393 H   0  0  0  0  0  0  0  0  0  0  0  0
    9.6150   -1.2633   21.7670 H   0  0  0  0  0  0  0  0  0  0  0  0
   10.3947   -2.1516   23.0731 H   0  0  0  0  0  0  0  0  0  0  0  0
   10.5634    0.8637   22.5716 H   0  0  0  0  0  0  0  0  0  0  0  0
    8.0603   -4.8237   23.8528 H   0  0  0  0  0  0  0  0  0  0  0  0
    9.6096   -3.9491   23.7731 H   0  0  0  0  0  0  0  0  0  0  0  0
    9.5952   -5.6620   24.1894 H   0  0  0  0  0  0  0  0  0  0  0  0
    8.4450   -0.2187   23.5849 H   0  0  0  0  0  0  0  0  0  0  0  0
    9.1728    1.1714   24.4127 H   0  0  0  0  0  0  0  0  0  0  0  0
    8.8733   -7.4249   27.0991 H   0  0  0  0  0  0  0  0  0  0  0  0
    9.0245   -6.9924   25.4171 H   0  0  0  0  0  0  0  0  0  0  0  0
    8.5514   -2.1855   24.2914 H   0  0  0  0  0  0  0  0  0  0  0  0
  1  4  2  0  0  0  0
  1 15  1  0  0  0  0
  1 19  1  0  0  0  0
  2  5  1  0  0  0  0
  2 15  2  0  0  0  0
  2 20  1  0  0  0  0
  3  4  1  0  0  0  0
  3  5  2  0  0  0  0
  3 13  1  0  0  0  0
  4 16  1  0  0  0  0
  5 17  1  0  0  0  0
  6 14  1  0  0  0  0
  6 17  1  0  0  0  0
  6 18  2  0  0  0  0
  7  8  1  0  0  0  0
  7  9  1  0  0  0  0
  7 21  1  0  0  0  0
  7 22  1  0  0  0  0
  8 10  1  0  0  0  0
  8 23  1  0  0  0  0
  8 24  1  0  0  0  0
  9 11  1  0  0  0  0
  9 25  1  0  0  0  0
  9 26  1  0  0  0  0
 10 12  1  0  0  0  0
 10 27  1  0  0  0  0
 10 28  1  0  0  0  0
 11 12  1  0  0  0  0
 11 29  1  0  0  0  0
 11 30  1  0  0  0  0
 12 14  1  0  0  0  0
 12 31  1  0  0  0  0
 13 32  1  0  0  0  0
 13 33  1  0  0  0  0
 13 34  1  0  0  0  0
 14 35  1  0  0  0  0
 14 36  1  0  0  0  0
 16 37  1  0  0  0  0
 16 38  1  0  0  0  0
 17 39  1  0  0  0  0
M  END
>  <Chemgauss4 Score>
-6.08684635162354

>  <Number of Confs>
39

$$$$
