SAL-INS-1c7-7
 OpenBabel03242009303D

 46 48  0  0  1  0  0  0  0  0999 V2000
    4.7539   -4.0784   22.4167 C   0  0  0  0  0  0  0  0  0  0  0  0
    4.9489   -5.2072   23.2125 C   0  0  0  0  0  0  0  0  0  0  0  0
    5.8146   -3.2065   22.1710 C   0  0  0  0  0  0  0  0  0  0  0  0
    6.2046   -5.4641   23.7628 C   0  0  0  0  0  0  0  0  0  0  0  0
    7.0704   -3.4634   22.7212 C   0  0  0  0  0  0  0  0  0  0  0  0
    8.9382   -3.8414   28.2614 C   0  0  0  0  0  0  0  0  0  0  0  0
    9.2555   -2.8916   27.2905 C   0  0  0  0  0  0  0  0  0  0  0  0
    8.4274   -5.4439   26.5271 C   0  0  0  0  0  0  0  0  0  0  0  0
    7.2654   -4.5922   23.5171 C   0  0  0  0  0  0  0  0  0  0  0  0
    8.5243   -5.1176   27.8798 C   0  0  0  0  0  0  0  0  0  0  0  0
    8.7446   -4.4941   25.5560 C   0  0  0  0  0  0  0  0  0  0  0  0
    9.1586   -3.2179   25.9378 C   0  0  0  0  0  0  0  0  0  0  0  0
   11.2561   -0.5883   24.7659 C   0  0  0  0  0  0  0  0  0  0  0  0
   11.8650    0.0610   23.7688 C   0  0  0  0  0  0  0  0  0  0  0  0
    8.4223   -1.3792   24.4991 C   0  0  0  0  0  0  0  0  0  0  0  0
   10.9774   -2.2602   23.0133 C   0  0  0  0  0  0  0  0  0  0  0  0
   10.8541   -2.0129   24.5159 C   0  0  2  0  0  0  0  0  0  0  0  0
    8.1828   -6.1324   28.9182 C   0  0  0  0  0  0  0  0  0  0  0  0
    8.6288   -4.8704   24.1144 C   0  0  0  0  0  0  0  0  0  0  0  0
    7.2688   -1.2693   25.4805 C   0  0  0  0  0  0  0  0  0  0  0  0
    9.4922   -2.2182   24.9458 N   0  0  0  0  0  0  0  0  0  0  0  0
    8.3672   -0.7997   23.4114 O   0  0  0  0  0  0  0  0  0  0  0  0
   13.4005   -1.4689   22.3314 O   0  0  0  0  0  0  0  0  0  0  0  0
   11.4075   -0.3552   21.2362 O   0  0  0  0  0  0  0  0  0  0  0  0
   12.0440   -0.9619   22.3875 S   0  0  0  0  0  0  0  0  0  0  0  0
    7.5259    0.1083   26.5720 Cl  0  0  0  0  0  0  0  0  0  0  0  0
    3.7764   -3.8792   21.9872 H   0  0  0  0  0  0  0  0  0  0  0  0
    4.1234   -5.8868   23.4031 H   0  0  0  0  0  0  0  0  0  0  0  0
    5.6634   -2.3282   21.5505 H   0  0  0  0  0  0  0  0  0  0  0  0
    6.3473   -6.3459   24.3818 H   0  0  0  0  0  0  0  0  0  0  0  0
    7.8910   -2.7785   22.5245 H   0  0  0  0  0  0  0  0  0  0  0  0
    9.0167   -3.5783   29.3129 H   0  0  0  0  0  0  0  0  0  0  0  0
    9.5781   -1.9006   27.6000 H   0  0  0  0  0  0  0  0  0  0  0  0
    8.1026   -6.4388   26.2311 H   0  0  0  0  0  0  0  0  0  0  0  0
   11.0564   -0.1114   25.7180 H   0  0  0  0  0  0  0  0  0  0  0  0
   12.1968    1.0902   23.7967 H   0  0  0  0  0  0  0  0  0  0  0  0
   11.4832   -3.2146   22.8238 H   0  0  0  0  0  0  0  0  0  0  0  0
   10.0240   -2.2496   22.4760 H   0  0  0  0  0  0  0  0  0  0  0  0
   11.4787   -2.7209   25.0677 H   0  0  0  0  0  0  0  0  0  0  0  0
    7.1182   -6.0725   29.1750 H   0  0  0  0  0  0  0  0  0  0  0  0
    8.3995   -7.1497   28.5674 H   0  0  0  0  0  0  0  0  0  0  0  0
    8.7707   -5.9798   29.8327 H   0  0  0  0  0  0  0  0  0  0  0  0
    8.8706   -5.9378   23.9757 H   0  0  0  0  0  0  0  0  0  0  0  0
    9.3957   -4.3470   23.5186 H   0  0  0  0  0  0  0  0  0  0  0  0
    6.3341   -1.1051   24.9385 H   0  0  0  0  0  0  0  0  0  0  0  0
    7.2003   -2.1595   26.1101 H   0  0  0  0  0  0  0  0  0  0  0  0
  1  2  1  0  0  0  0
  1  3  2  0  0  0  0
  1 27  1  0  0  0  0
  2  4  2  0  0  0  0
  2 28  1  0  0  0  0
  3  5  1  0  0  0  0
  3 29  1  0  0  0  0
  4  9  1  0  0  0  0
  4 30  1  0  0  0  0
  5  9  2  0  0  0  0
  5 31  1  0  0  0  0
  6  7  2  0  0  0  0
  6 10  1  0  0  0  0
  6 32  1  0  0  0  0
  7 12  1  0  0  0  0
  7 33  1  0  0  0  0
  8 10  2  0  0  0  0
  8 11  1  0  0  0  0
  8 34  1  0  0  0  0
  9 19  1  0  0  0  0
 10 18  1  0  0  0  0
 11 12  2  0  0  0  0
 11 19  1  0  0  0  0
 12 21  1  0  0  0  0
 13 14  2  0  0  0  0
 13 17  1  0  0  0  0
 13 35  1  0  0  0  0
 14 25  1  0  0  0  0
 14 36  1  0  0  0  0
 15 20  1  0  0  0  0
 15 21  1  0  0  0  0
 15 22  2  0  0  0  0
 16 17  1  0  0  0  0
 16 25  1  0  0  0  0
 16 37  1  0  0  0  0
 16 38  1  0  0  0  0
 17 21  1  0  0  0  0
 17 39  1  1  0  0  0
 18 40  1  0  0  0  0
 18 41  1  0  0  0  0
 18 42  1  0  0  0  0
 19 43  1  0  0  0  0
 19 44  1  0  0  0  0
 20 26  1  0  0  0  0
 20 45  1  0  0  0  0
 20 46  1  0  0  0  0
 23 25  2  0  0  0  0
 24 25  2  0  0  0  0
M  END
>  <Chemgauss4 Score>
-5.68433952331543

>  <Number of Confs>
144

$$$$
