JOH-MEM-5e3-1
 OpenBabel03242009303D

 34 35  0  0  1  0  0  0  0  0999 V2000
   10.8865   -4.4030   24.6884 C   0  0  0  0  0  0  0  0  0  0  0  0
   11.2193   -3.2968   23.9050 C   0  0  0  0  0  0  0  0  0  0  0  0
   10.2705   -1.7722   25.5577 C   0  0  0  0  0  0  0  0  0  0  0  0
    9.9399   -2.8725   26.3268 C   0  0  0  0  0  0  0  0  0  0  0  0
   10.2514   -4.1581   25.8893 C   0  0  0  0  0  0  0  0  0  0  0  0
   10.9144   -1.9924   24.3357 C   0  0  0  0  0  0  0  0  0  0  0  0
    9.2116   -4.4684   27.9198 C   0  0  0  0  0  0  0  0  0  0  0  0
    6.6987   -4.8975   25.2367 C   0  0  0  0  0  0  0  0  0  0  0  0
    9.2675   -2.9489   27.6679 C   0  0  2  0  0  0  0  0  0  0  0  0
    7.0818   -5.0894   23.8068 C   0  0  0  0  0  0  0  0  0  0  0  0
   11.9066   -1.2189   22.3176 C   0  0  0  0  0  0  0  0  0  0  0  0
    7.8742   -2.3434   27.6827 C   0  0  0  0  0  0  0  0  0  0  0  0
    6.8127   -3.2877   27.1284 C   0  0  0  0  0  0  0  0  0  0  0  0
    9.8238   -5.0912   26.8267 N   0  0  0  0  0  0  0  0  0  0  0  0
    7.0827   -3.6775   25.7721 N   0  0  0  0  0  0  0  0  0  0  0  0
    8.7199   -5.0099   28.8983 O   0  0  0  0  0  0  0  0  0  0  0  0
    6.0947   -5.7868   25.8250 O   0  0  0  0  0  0  0  0  0  0  0  0
   11.2519   -0.9304   23.5511 O   0  0  0  0  0  0  0  0  0  0  0  0
   11.1206   -5.4088   24.3596 H   0  0  0  0  0  0  0  0  0  0  0  0
   11.7203   -3.4483   22.9520 H   0  0  0  0  0  0  0  0  0  0  0  0
   10.0390   -0.7665   25.8924 H   0  0  0  0  0  0  0  0  0  0  0  0
    9.9097   -2.4991   28.4333 H   0  0  0  0  0  0  0  0  0  0  0  0
    8.0763   -5.5507   23.6962 H   0  0  0  0  0  0  0  0  0  0  0  0
    6.3892   -5.7591   23.2722 H   0  0  0  0  0  0  0  0  0  0  0  0
    7.1201   -4.1695   23.2017 H   0  0  0  0  0  0  0  0  0  0  0  0
   12.1195   -0.2858   21.7902 H   0  0  0  0  0  0  0  0  0  0  0  0
   11.2659   -1.8582   21.7048 H   0  0  0  0  0  0  0  0  0  0  0  0
   12.8445   -1.7391   22.5260 H   0  0  0  0  0  0  0  0  0  0  0  0
    7.8807   -1.4276   27.0786 H   0  0  0  0  0  0  0  0  0  0  0  0
    7.6163   -2.0511   28.7085 H   0  0  0  0  0  0  0  0  0  0  0  0
    6.7775   -4.2054   27.7239 H   0  0  0  0  0  0  0  0  0  0  0  0
    5.8202   -2.8270   27.1535 H   0  0  0  0  0  0  0  0  0  0  0  0
    9.9376   -6.0918   26.7161 H   0  0  0  0  0  0  0  0  0  0  0  0
    7.5829   -3.0225   25.1718 H   0  0  0  0  0  0  0  0  0  0  0  0
  1  2  2  0  0  0  0
  1  5  1  0  0  0  0
  1 19  1  0  0  0  0
  2  6  1  0  0  0  0
  2 20  1  0  0  0  0
  3  4  1  0  0  0  0
  3  6  2  0  0  0  0
  3 21  1  0  0  0  0
  4  5  2  0  0  0  0
  4  9  1  0  0  0  0
  5 14  1  0  0  0  0
  6 18  1  0  0  0  0
  7  9  1  0  0  0  0
  7 14  1  0  0  0  0
  7 16  2  0  0  0  0
  8 10  1  0  0  0  0
  8 15  1  0  0  0  0
  8 17  2  0  0  0  0
  9 12  1  0  0  0  0
  9 22  1  1  0  0  0
 10 23  1  0  0  0  0
 10 24  1  0  0  0  0
 10 25  1  0  0  0  0
 11 18  1  0  0  0  0
 11 26  1  0  0  0  0
 11 27  1  0  0  0  0
 11 28  1  0  0  0  0
 12 13  1  0  0  0  0
 12 29  1  0  0  0  0
 12 30  1  0  0  0  0
 13 15  1  0  0  0  0
 13 31  1  0  0  0  0
 13 32  1  0  0  0  0
 14 33  1  0  0  0  0
 15 34  1  0  0  0  0
M  END
>  <Chemgauss4 Score>
-5.19607830047607

>  <Number of Confs>
50

$$$$
