SAL-INS-1c7-6
 OpenBabel03242009303D

 41 44  0  0  1  0  0  0  0  0999 V2000
   12.6600   -0.0705   24.1425 C   0  0  0  0  0  0  0  0  0  0  0  0
   12.2934   -1.2100   24.8588 C   0  0  0  0  0  0  0  0  0  0  0  0
   11.8956    0.3445   23.0565 C   0  0  0  0  0  0  0  0  0  0  0  0
   10.7728   -3.0991   25.2052 C   0  0  0  0  0  0  0  0  0  0  0  0
    9.2410   -2.2672   23.0347 C   0  0  0  0  0  0  0  0  0  0  0  0
    9.2490   -4.0729   28.0420 C   0  0  0  0  0  0  0  0  0  0  0  0
    7.2176   -4.7505   28.5626 C   0  0  0  0  0  0  0  0  0  0  0  0
   11.1554   -1.9494   24.4966 C   0  0  0  0  0  0  0  0  0  0  0  0
   10.3792   -1.5281   23.3949 C   0  0  0  0  0  0  0  0  0  0  0  0
    8.8575   -3.4129   23.7495 C   0  0  0  0  0  0  0  0  0  0  0  0
    9.6343   -3.8366   24.8391 C   0  0  0  0  0  0  0  0  0  0  0  0
   10.7623   -0.3788   22.6840 C   0  0  0  0  0  0  0  0  0  0  0  0
    8.6669   -4.7613   27.0038 C   0  0  0  0  0  0  0  0  0  0  0  0
    5.9210   -5.7113   24.3704 C   0  0  0  0  0  0  0  0  0  0  0  0
    7.6224   -4.1617   23.3108 C   0  0  0  0  0  0  0  0  0  0  0  0
    8.3325   -5.9984   24.8219 C   0  0  0  0  0  0  0  0  0  0  0  0
    9.2531   -5.0727   25.6333 C   0  0  1  0  0  0  0  0  0  0  0  0
    5.0006   -5.5548   23.1854 C   0  0  0  0  0  0  0  0  0  0  0  0
    7.4024   -5.1802   27.3341 N   0  0  0  0  0  0  0  0  0  0  0  0
    8.3085   -4.0738   29.0333 N   0  0  0  0  0  0  0  0  0  0  0  0
    7.2326   -5.2613   24.2019 N   0  0  0  0  0  0  0  0  0  0  0  0
   10.0237    0.0996   21.5615 N   0  3  0  0  0  0  0  0  0  0  0  0
   10.3269   -0.3159   20.4203 O   0  5  0  0  0  0  0  0  0  0  0  0
    5.4865   -6.2095   25.4117 O   0  0  0  0  0  0  0  0  0  0  0  0
    9.0976    0.9191   21.7556 O   0  0  0  0  0  0  0  0  0  0  0  0
    5.7330   -6.4489   21.8583 Cl  0  0  0  0  0  0  0  0  0  0  0  0
   13.5411    0.4934   24.4346 H   0  0  0  0  0  0  0  0  0  0  0  0
   12.9056   -1.5159   25.7049 H   0  0  0  0  0  0  0  0  0  0  0  0
   12.1938    1.2358   22.5094 H   0  0  0  0  0  0  0  0  0  0  0  0
   11.3698   -3.4316   26.0537 H   0  0  0  0  0  0  0  0  0  0  0  0
    8.6244   -1.9654   22.1896 H   0  0  0  0  0  0  0  0  0  0  0  0
   10.2116   -3.5977   28.1648 H   0  0  0  0  0  0  0  0  0  0  0  0
    6.3286   -4.8938   29.1605 H   0  0  0  0  0  0  0  0  0  0  0  0
    6.7971   -3.4497   23.2204 H   0  0  0  0  0  0  0  0  0  0  0  0
    7.8029   -4.6067   22.3251 H   0  0  0  0  0  0  0  0  0  0  0  0
    8.8949   -6.4682   24.0044 H   0  0  0  0  0  0  0  0  0  0  0  0
    7.9513   -6.8066   25.4561 H   0  0  0  0  0  0  0  0  0  0  0  0
   10.2036   -5.6936   25.8167 H   0  0  0  0  0  0  0  0  0  0  0  0
    4.9304   -4.5033   22.9324 H   0  0  0  0  0  0  0  0  0  0  0  0
    4.0350   -5.9797   23.4332 H   0  0  0  0  0  0  0  0  0  0  0  0
    8.4022   -3.6523   29.9476 H   0  0  0  0  0  0  0  0  0  0  0  0
  1  2  2  0  0  0  0
  1  3  1  0  0  0  0
  1 27  1  0  0  0  0
  2  8  1  0  0  0  0
  2 28  1  0  0  0  0
  3 12  2  0  0  0  0
  3 29  1  0  0  0  0
  4  8  2  0  0  0  0
  4 11  1  0  0  0  0
  4 30  1  0  0  0  0
  5  9  2  0  0  0  0
  5 10  1  0  0  0  0
  5 31  1  0  0  0  0
  6 13  2  0  0  0  0
  6 20  1  0  0  0  0
  6 32  1  0  0  0  0
  7 19  2  0  0  0  0
  7 20  1  0  0  0  0
  7 33  1  0  0  0  0
  8  9  1  0  0  0  0
  9 12  1  0  0  0  0
 10 11  2  0  0  0  0
 10 15  1  0  0  0  0
 11 17  1  0  0  0  0
 12 22  1  0  0  0  0
 13 17  1  0  0  0  0
 13 19  1  0  0  0  0
 14 18  1  0  0  0  0
 14 21  1  0  0  0  0
 14 24  2  0  0  0  0
 15 21  1  0  0  0  0
 15 34  1  0  0  0  0
 15 35  1  0  0  0  0
 16 17  1  0  0  0  0
 16 21  1  0  0  0  0
 16 36  1  0  0  0  0
 16 37  1  0  0  0  0
 17 38  1  1  0  0  0
 18 26  1  0  0  0  0
 18 39  1  0  0  0  0
 18 40  1  0  0  0  0
 20 41  1  0  0  0  0
 22 23  1  0  0  0  0
 22 25  2  0  0  0  0
M  CHG  2  22   1  23  -1
M  END
>  <Chemgauss4 Score>
-6.33078861236572

>  <Number of Confs>
26

$$$$
