KIM-UNI-7d1-1
 OpenBabel03242009303D

 42 43  0  0  0  0  0  0  0  0999 V2000
    6.4681   -5.6073   25.8849 C   0  0  0  0  0  0  0  0  0  0  0  0
    6.2895   -5.7138   27.2642 C   0  0  0  0  0  0  0  0  0  0  0  0
    8.5979   -5.0912   27.6112 C   0  0  0  0  0  0  0  0  0  0  0  0
    8.7766   -4.9848   26.2319 C   0  0  0  0  0  0  0  0  0  0  0  0
    7.7116   -5.2429   25.3688 C   0  0  0  0  0  0  0  0  0  0  0  0
    7.3544   -5.4557   28.1273 C   0  0  0  0  0  0  0  0  0  0  0  0
   11.7839    0.3021   23.7013 C   0  0  0  0  0  0  0  0  0  0  0  0
    9.9421   -0.8921   24.9811 C   0  0  0  0  0  0  0  0  0  0  0  0
   11.1323   -2.0161   23.1415 C   0  0  0  0  0  0  0  0  0  0  0  0
   10.0357   -2.1837   25.7955 C   0  0  0  0  0  0  0  0  0  0  0  0
   11.2086   -3.2832   23.9926 C   0  0  0  0  0  0  0  0  0  0  0  0
   13.1863    0.0490   23.2085 C   0  0  0  0  0  0  0  0  0  0  0  0
    7.2722   -5.2161   21.6384 C   0  0  0  0  0  0  0  0  0  0  0  0
   10.1255   -4.5907   25.7035 C   0  0  0  0  0  0  0  0  0  0  0  0
    6.8137   -5.3944   23.0458 C   0  0  0  0  0  0  0  0  0  0  0  0
   11.0074   -0.8225   23.9766 N   0  0  0  0  0  0  0  0  0  0  0  0
   10.0663   -3.3607   24.9149 N   0  0  0  0  0  0  0  0  0  0  0  0
    7.8740   -5.1402   23.9697 N   0  0  0  0  0  0  0  0  0  0  0  0
   11.3906    1.4639   23.8332 O   0  0  0  0  0  0  0  0  0  0  0  0
    7.1333   -5.5871   29.8290 Cl  0  0  0  0  0  0  0  0  0  0  0  0
    5.6310   -5.8108   25.2219 H   0  0  0  0  0  0  0  0  0  0  0  0
    5.3149   -5.9987   27.6523 H   0  0  0  0  0  0  0  0  0  0  0  0
    9.4310   -4.8890   28.2808 H   0  0  0  0  0  0  0  0  0  0  0  0
    8.9889   -0.8487   24.4396 H   0  0  0  0  0  0  0  0  0  0  0  0
    9.9676   -0.0371   25.6595 H   0  0  0  0  0  0  0  0  0  0  0  0
   12.0162   -1.9487   22.4989 H   0  0  0  0  0  0  0  0  0  0  0  0
   10.2535   -2.0451   22.4854 H   0  0  0  0  0  0  0  0  0  0  0  0
   10.9259   -2.1495   26.4377 H   0  0  0  0  0  0  0  0  0  0  0  0
    9.1601   -2.2376   26.4536 H   0  0  0  0  0  0  0  0  0  0  0  0
   11.1996   -4.1489   23.3194 H   0  0  0  0  0  0  0  0  0  0  0  0
   12.1604   -3.3042   24.5401 H   0  0  0  0  0  0  0  0  0  0  0  0
   13.1762   -0.0125   22.1253 H   0  0  0  0  0  0  0  0  0  0  0  0
   13.5481   -0.8836   23.6296 H   0  0  0  0  0  0  0  0  0  0  0  0
   13.8274    0.8643   23.5279 H   0  0  0  0  0  0  0  0  0  0  0  0
    8.0984   -5.9118   21.4305 H   0  0  0  0  0  0  0  0  0  0  0  0
    6.4377   -5.4224   20.9521 H   0  0  0  0  0  0  0  0  0  0  0  0
    7.6186   -4.1820   21.4941 H   0  0  0  0  0  0  0  0  0  0  0  0
   10.8307   -4.4302   26.5263 H   0  0  0  0  0  0  0  0  0  0  0  0
   10.5430   -5.3772   25.0661 H   0  0  0  0  0  0  0  0  0  0  0  0
    5.9880   -4.6956   23.2457 H   0  0  0  0  0  0  0  0  0  0  0  0
    6.4604   -6.4275   23.1801 H   0  0  0  0  0  0  0  0  0  0  0  0
    8.7818   -4.8773   23.6375 H   0  0  0  0  0  0  0  0  0  0  0  0
  1  2  2  0  0  0  0
  1  5  1  0  0  0  0
  1 21  1  0  0  0  0
  2  6  1  0  0  0  0
  2 22  1  0  0  0  0
  3  4  1  0  0  0  0
  3  6  2  0  0  0  0
  3 23  1  0  0  0  0
  4  5  2  0  0  0  0
  4 14  1  0  0  0  0
  5 18  1  0  0  0  0
  6 20  1  0  0  0  0
  7 12  1  0  0  0  0
  7 16  1  0  0  0  0
  7 19  2  0  0  0  0
  8 10  1  0  0  0  0
  8 16  1  0  0  0  0
  8 24  1  0  0  0  0
  8 25  1  0  0  0  0
  9 11  1  0  0  0  0
  9 16  1  0  0  0  0
  9 26  1  0  0  0  0
  9 27  1  0  0  0  0
 10 17  1  0  0  0  0
 10 28  1  0  0  0  0
 10 29  1  0  0  0  0
 11 17  1  0  0  0  0
 11 30  1  0  0  0  0
 11 31  1  0  0  0  0
 12 32  1  0  0  0  0
 12 33  1  0  0  0  0
 12 34  1  0  0  0  0
 13 15  1  0  0  0  0
 13 35  1  0  0  0  0
 13 36  1  0  0  0  0
 13 37  1  0  0  0  0
 14 17  1  0  0  0  0
 14 38  1  0  0  0  0
 14 39  1  0  0  0  0
 15 18  1  0  0  0  0
 15 40  1  0  0  0  0
 15 41  1  0  0  0  0
 18 42  1  0  0  0  0
M  END
>  <Chemgauss4 Score>
-5.38087511062622

>  <Number of Confs>
43

$$$$
