DAV-AUT-fa2-5
 OpenBabel03242009303D

 45 47  0  0  1  0  0  0  0  0999 V2000
    9.5056   -3.0800   24.2632 C   0  0  0  0  0  0  0  0  0  0  0  0
    7.2575   -3.9313   24.3994 C   0  0  0  0  0  0  0  0  0  0  0  0
    7.7775   -2.0766   22.8991 C   0  0  0  0  0  0  0  0  0  0  0  0
    9.1330   -2.0930   23.3248 C   0  0  0  0  0  0  0  0  0  0  0  0
    6.8561   -2.9806   23.4659 C   0  0  0  0  0  0  0  0  0  0  0  0
    8.5849   -3.9868   24.7918 C   0  0  0  0  0  0  0  0  0  0  0  0
   11.7591    0.1822   23.9438 C   0  0  0  0  0  0  0  0  0  0  0  0
   12.3998   -1.4437   22.1422 C   0  0  0  0  0  0  0  0  0  0  0  0
    9.5758   -0.0140   22.0890 C   0  0  0  0  0  0  0  0  0  0  0  0
   13.2357    0.2464   24.3130 C   0  0  0  0  0  0  0  0  0  0  0  0
   13.8402   -1.2898   22.6134 C   0  0  0  0  0  0  0  0  0  0  0  0
    7.2909   -1.0509   21.8821 C   0  0  1  0  0  0  0  0  0  0  0  0
   11.4250   -1.1567   23.2853 C   0  0  0  0  0  0  0  0  0  0  0  0
    8.4656   -0.4125   21.1436 C   0  0  0  0  0  0  0  0  0  0  0  0
    6.2927   -1.6013   20.8540 C   0  0  0  0  0  0  0  0  0  0  0  0
   10.8500   -4.9188   26.1783 C   0  0  0  0  0  0  0  0  0  0  0  0
    8.4183   -4.8269   27.2909 N   0  0  0  0  0  0  0  0  0  0  0  0
   10.0598   -1.1766   22.8226 N   0  0  0  0  0  0  0  0  0  0  0  0
    9.0154   -6.4928   25.2998 O   0  0  0  0  0  0  0  0  0  0  0  0
   14.0548    0.0075   23.1686 O   0  0  0  0  0  0  0  0  0  0  0  0
    5.5617   -2.9340   23.1066 F   0  0  0  0  0  0  0  0  0  0  0  0
    8.9596   -1.2638   20.2080 F   0  0  0  0  0  0  0  0  0  0  0  0
    8.0386    0.6896   20.4750 F   0  0  0  0  0  0  0  0  0  0  0  0
    9.1044   -5.1870   25.9479 S   0  0  1  0  0  0  0  0  0  0  0  0
   10.5378   -3.1548   24.6007 H   0  0  0  0  0  0  0  0  0  0  0  0
    6.5234   -4.6192   24.8112 H   0  0  0  0  0  0  0  0  0  0  0  0
   11.1682    0.2635   24.8614 H   0  0  0  0  0  0  0  0  0  0  0  0
   11.4841    1.0216   23.3018 H   0  0  0  0  0  0  0  0  0  0  0  0
   12.2036   -0.8043   21.2806 H   0  0  0  0  0  0  0  0  0  0  0  0
   12.2489   -2.4791   21.8249 H   0  0  0  0  0  0  0  0  0  0  0  0
   10.4009    0.4568   21.5487 H   0  0  0  0  0  0  0  0  0  0  0  0
    9.1833    0.7320   22.7859 H   0  0  0  0  0  0  0  0  0  0  0  0
   13.5018    1.2125   24.7584 H   0  0  0  0  0  0  0  0  0  0  0  0
   13.4661   -0.5281   25.0521 H   0  0  0  0  0  0  0  0  0  0  0  0
   14.0549   -2.0248   23.3955 H   0  0  0  0  0  0  0  0  0  0  0  0
   14.5528   -1.4603   21.7984 H   0  0  0  0  0  0  0  0  0  0  0  0
    6.7878   -0.2160   22.4226 H   0  0  0  0  0  0  0  0  0  0  0  0
   11.5314   -1.9588   24.0479 H   0  0  0  0  0  0  0  0  0  0  0  0
    6.7499   -2.4207   20.3051 H   0  0  0  0  0  0  0  0  0  0  0  0
    6.0140   -0.8131   20.1591 H   0  0  0  0  0  0  0  0  0  0  0  0
    5.4041   -1.9616   21.3661 H   0  0  0  0  0  0  0  0  0  0  0  0
   11.2190   -5.6515   26.8977 H   0  0  0  0  0  0  0  0  0  0  0  0
   11.3477   -5.0440   25.2155 H   0  0  0  0  0  0  0  0  0  0  0  0
   10.9958   -3.9055   26.5556 H   0  0  0  0  0  0  0  0  0  0  0  0
    8.6500   -5.4683   28.0552 H   0  0  0  0  0  0  0  0  0  0  0  0
  1  4  1  0  0  0  0
  1  6  2  0  0  0  0
  1 25  1  0  0  0  0
  2  5  2  0  0  0  0
  2  6  1  0  0  0  0
  2 26  1  0  0  0  0
  3  4  2  0  0  0  0
  3  5  1  0  0  0  0
  3 12  1  0  0  0  0
  4 18  1  0  0  0  0
  5 21  1  0  0  0  0
  6 24  1  0  0  0  0
  7 10  1  0  0  0  0
  7 13  1  0  0  0  0
  7 27  1  0  0  0  0
  7 28  1  0  0  0  0
  8 11  1  0  0  0  0
  8 13  1  0  0  0  0
  8 29  1  0  0  0  0
  8 30  1  0  0  0  0
  9 14  1  0  0  0  0
  9 18  1  0  0  0  0
  9 31  1  0  0  0  0
  9 32  1  0  0  0  0
 10 20  1  0  0  0  0
 10 33  1  0  0  0  0
 10 34  1  0  0  0  0
 11 20  1  0  0  0  0
 11 35  1  0  0  0  0
 11 36  1  0  0  0  0
 12 14  1  0  0  0  0
 12 15  1  0  0  0  0
 12 37  1  1  0  0  0
 13 18  1  0  0  0  0
 13 38  1  0  0  0  0
 14 22  1  0  0  0  0
 14 23  1  0  0  0  0
 15 39  1  0  0  0  0
 15 40  1  0  0  0  0
 15 41  1  0  0  0  0
 16 24  1  0  0  0  0
 16 42  1  0  0  0  0
 16 43  1  0  0  0  0
 16 44  1  0  0  0  0
 17 24  2  0  0  0  0
 17 45  1  0  0  0  0
 24 19  2  6  0  0  0
M  END
>  <Chemgauss4 Score>
-5.13355112075806

>  <Number of Confs>
13

$$$$
