HAN-NEW-5f5-1
 OpenBabel03242009303D

 29 30  0  0  0  0  0  0  0  0999 V2000
   12.6887   -0.0867   23.0076 C   0  0  0  0  0  0  0  0  0  0  0  0
   12.0917   -1.0255   22.1662 C   0  0  0  0  0  0  0  0  0  0  0  0
   12.3067   -0.0079   24.3469 C   0  0  0  0  0  0  0  0  0  0  0  0
   11.1127   -1.8853   22.6640 C   0  0  0  0  0  0  0  0  0  0  0  0
   11.3277   -0.8677   24.8447 C   0  0  0  0  0  0  0  0  0  0  0  0
    7.6524   -3.5440   28.2352 C   0  0  0  0  0  0  0  0  0  0  0  0
    6.0717   -4.8879   29.1641 C   0  0  0  0  0  0  0  0  0  0  0  0
   10.7307   -1.8065   24.0033 C   0  0  0  0  0  0  0  0  0  0  0  0
    7.4956   -4.1561   27.0084 C   0  0  0  0  0  0  0  0  0  0  0  0
    6.5594   -5.1688   26.9617 C   0  0  0  0  0  0  0  0  0  0  0  0
    9.2295   -2.7457   25.8152 C   0  0  0  0  0  0  0  0  0  0  0  0
    6.3014   -5.9052   25.6876 C   0  0  0  0  0  0  0  0  0  0  0  0
    6.9545   -3.8859   29.3381 N   0  0  0  0  0  0  0  0  0  0  0  0
    5.8270   -5.5622   28.0244 N   0  0  0  0  0  0  0  0  0  0  0  0
    9.7515   -2.6667   24.5010 N   0  0  0  0  0  0  0  0  0  0  0  0
    8.2559   -3.7551   25.8845 N   0  0  0  0  0  0  0  0  0  0  0  0
    9.5810   -2.0336   26.7503 O   0  0  0  0  0  0  0  0  0  0  0  0
   13.4516    0.5825   22.6206 H   0  0  0  0  0  0  0  0  0  0  0  0
   12.3895   -1.0877   21.1237 H   0  0  0  0  0  0  0  0  0  0  0  0
   12.7725    0.7226   25.0021 H   0  0  0  0  0  0  0  0  0  0  0  0
   10.6545   -2.6130   21.9989 H   0  0  0  0  0  0  0  0  0  0  0  0
   11.0381   -0.7972   25.8902 H   0  0  0  0  0  0  0  0  0  0  0  0
    8.3634   -2.7363   28.3798 H   0  0  0  0  0  0  0  0  0  0  0  0
    5.4955   -5.1814   30.0332 H   0  0  0  0  0  0  0  0  0  0  0  0
    6.9629   -6.7756   25.6119 H   0  0  0  0  0  0  0  0  0  0  0  0
    5.2616   -6.2499   25.6333 H   0  0  0  0  0  0  0  0  0  0  0  0
    6.4702   -5.2602   24.8166 H   0  0  0  0  0  0  0  0  0  0  0  0
    9.3574   -3.3300   23.8255 H   0  0  0  0  0  0  0  0  0  0  0  0
    8.0699   -4.2651   25.0246 H   0  0  0  0  0  0  0  0  0  0  0  0
  1  2  1  0  0  0  0
  1  3  2  0  0  0  0
  1 18  1  0  0  0  0
  2  4  2  0  0  0  0
  2 19  1  0  0  0  0
  3  5  1  0  0  0  0
  3 20  1  0  0  0  0
  4  8  1  0  0  0  0
  4 21  1  0  0  0  0
  5  8  2  0  0  0  0
  5 22  1  0  0  0  0
  6  9  1  0  0  0  0
  6 13  2  0  0  0  0
  6 23  1  0  0  0  0
  7 13  1  0  0  0  0
  7 14  2  0  0  0  0
  7 24  1  0  0  0  0
  8 15  1  0  0  0  0
  9 10  2  0  0  0  0
  9 16  1  0  0  0  0
 10 12  1  0  0  0  0
 10 14  1  0  0  0  0
 11 15  1  0  0  0  0
 11 16  1  0  0  0  0
 11 17  2  0  0  0  0
 12 25  1  0  0  0  0
 12 26  1  0  0  0  0
 12 27  1  0  0  0  0
 15 28  1  0  0  0  0
 16 29  1  0  0  0  0
M  END
>  <Chemgauss4 Score>
-4.65530109405518

>  <Number of Confs>
1

$$$$
