JOR-UNI-2fc-5
 OpenBabel03242009303D

 47 49  0  0  0  0  0  0  0  0999 V2000
   10.2827   -4.2376   26.3812 C   0  0  0  0  0  0  0  0  0  0  0  0
   13.1815   -0.8096   21.9846 C   0  0  0  0  0  0  0  0  0  0  0  0
    9.8519   -3.5513   25.2458 C   0  0  0  0  0  0  0  0  0  0  0  0
   11.8643   -1.0768   22.3409 C   0  0  0  0  0  0  0  0  0  0  0  0
    9.4104   -4.4306   27.4524 C   0  0  0  0  0  0  0  0  0  0  0  0
    7.6765   -3.2508   26.2530 C   0  0  0  0  0  0  0  0  0  0  0  0
   14.0113   -0.2488   22.9421 C   0  0  0  0  0  0  0  0  0  0  0  0
   12.3320   -0.2200   24.5096 C   0  0  0  0  0  0  0  0  0  0  0  0
    8.5488   -3.0579   25.1818 C   0  0  0  0  0  0  0  0  0  0  0  0
   11.4234   -0.7793   23.6256 C   0  0  0  0  0  0  0  0  0  0  0  0
    8.1073   -3.9371   27.3884 C   0  0  0  0  0  0  0  0  0  0  0  0
    9.0620   -1.5977   23.2406 C   0  0  0  0  0  0  0  0  0  0  0  0
    4.4044   -5.4013   23.2277 C   0  0  0  0  0  0  0  0  0  0  0  0
    6.3427   -5.7130   21.8272 C   0  0  0  0  0  0  0  0  0  0  0  0
    4.8203   -3.9479   23.4794 C   0  0  0  0  0  0  0  0  0  0  0  0
    6.7575   -4.2591   22.0781 C   0  0  0  0  0  0  0  0  0  0  0  0
    4.4914   -7.2517   21.6837 C   0  0  0  0  0  0  0  0  0  0  0  0
    6.6728   -2.4109   23.6247 C   0  0  0  0  0  0  0  0  0  0  0  0
   13.6191    0.0540   24.1999 N   0  0  0  0  0  0  0  0  0  0  0  0
    4.8854   -5.8643   21.9203 N   0  0  0  0  0  0  0  0  0  0  0  0
    6.2776   -3.7976   23.3864 N   0  0  0  0  0  0  0  0  0  0  0  0
   10.0865   -1.0400   24.0181 N   0  0  0  0  0  0  0  0  0  0  0  0
    8.1024   -2.3437   24.0012 N   0  0  0  0  0  0  0  0  0  0  0  0
    8.9713   -1.4140   22.0252 O   0  0  0  0  0  0  0  0  0  0  0  0
    7.0309   -4.1751   28.7101 Cl  0  0  0  0  0  0  0  0  0  0  0  0
   11.2975   -4.6218   26.4310 H   0  0  0  0  0  0  0  0  0  0  0  0
   13.5469   -1.0333   20.9889 H   0  0  0  0  0  0  0  0  0  0  0  0
   10.5407   -3.4069   24.4171 H   0  0  0  0  0  0  0  0  0  0  0  0
   11.1905   -1.5166   21.6104 H   0  0  0  0  0  0  0  0  0  0  0  0
    9.7603   -4.9675   28.3303 H   0  0  0  0  0  0  0  0  0  0  0  0
    6.6608   -2.8650   26.1995 H   0  0  0  0  0  0  0  0  0  0  0  0
   15.0472   -0.0205   22.7136 H   0  0  0  0  0  0  0  0  0  0  0  0
   12.0472    0.0340   25.5264 H   0  0  0  0  0  0  0  0  0  0  0  0
    4.7881   -6.0399   24.0350 H   0  0  0  0  0  0  0  0  0  0  0  0
    3.3095   -5.4572   23.2607 H   0  0  0  0  0  0  0  0  0  0  0  0
    6.6815   -5.9998   20.8242 H   0  0  0  0  0  0  0  0  0  0  0  0
    6.8518   -6.3712   22.5443 H   0  0  0  0  0  0  0  0  0  0  0  0
    4.3117   -3.2889   22.7624 H   0  0  0  0  0  0  0  0  0  0  0  0
    4.4815   -3.6612   24.4824 H   0  0  0  0  0  0  0  0  0  0  0  0
    7.8523   -4.2026   22.0441 H   0  0  0  0  0  0  0  0  0  0  0  0
    6.3722   -3.6206   21.2714 H   0  0  0  0  0  0  0  0  0  0  0  0
    4.8621   -7.5761   20.7002 H   0  0  0  0  0  0  0  0  0  0  0  0
    4.9208   -7.8934   22.4672 H   0  0  0  0  0  0  0  0  0  0  0  0
    3.3944   -7.3301   21.7060 H   0  0  0  0  0  0  0  0  0  0  0  0
    6.5186   -1.8180   22.7165 H   0  0  0  0  0  0  0  0  0  0  0  0
    6.0376   -1.9450   24.3853 H   0  0  0  0  0  0  0  0  0  0  0  0
    9.8430   -0.7946   24.9719 H   0  0  0  0  0  0  0  0  0  0  0  0
  1  3  2  0  0  0  0
  1  5  1  0  0  0  0
  1 26  1  0  0  0  0
  2  4  2  0  0  0  0
  2  7  1  0  0  0  0
  2 27  1  0  0  0  0
  3  9  1  0  0  0  0
  3 28  1  0  0  0  0
  4 10  1  0  0  0  0
  4 29  1  0  0  0  0
  5 11  2  0  0  0  0
  5 30  1  0  0  0  0
  6  9  2  0  0  0  0
  6 11  1  0  0  0  0
  6 31  1  0  0  0  0
  7 19  2  0  0  0  0
  7 32  1  0  0  0  0
  8 10  2  0  0  0  0
  8 19  1  0  0  0  0
  8 33  1  0  0  0  0
  9 23  1  0  0  0  0
 10 22  1  0  0  0  0
 11 25  1  0  0  0  0
 12 22  1  0  0  0  0
 12 23  1  0  0  0  0
 12 24  2  0  0  0  0
 13 15  1  0  0  0  0
 13 20  1  0  0  0  0
 13 34  1  0  0  0  0
 13 35  1  0  0  0  0
 14 16  1  0  0  0  0
 14 20  1  0  0  0  0
 14 36  1  0  0  0  0
 14 37  1  0  0  0  0
 15 21  1  0  0  0  0
 15 38  1  0  0  0  0
 15 39  1  0  0  0  0
 16 21  1  0  0  0  0
 16 40  1  0  0  0  0
 16 41  1  0  0  0  0
 17 20  1  0  0  0  0
 17 42  1  0  0  0  0
 17 43  1  0  0  0  0
 17 44  1  0  0  0  0
 18 21  1  0  0  0  0
 18 23  1  0  0  0  0
 18 45  1  0  0  0  0
 18 46  1  0  0  0  0
 22 47  1  0  0  0  0
M  END
>  <Chemgauss4 Score>
-4.66671085357666

>  <Number of Confs>
200

$$$$
