TRY-UNI-1fd-4
 OpenBabel03242009303D

 39 41  0  0  0  0  0  0  0  0999 V2000
    7.1256   -5.3296   26.6952 C   0  0  0  0  0  0  0  0  0  0  0  0
    6.4778   -5.5474   25.4778 C   0  0  0  0  0  0  0  0  0  0  0  0
    8.3377   -4.5750   24.2813 C   0  0  0  0  0  0  0  0  0  0  0  0
   10.6169   -3.6994   27.0888 C   0  0  0  0  0  0  0  0  0  0  0  0
    9.0206   -4.3406   25.4993 C   0  0  0  0  0  0  0  0  0  0  0  0
   10.3040   -3.7492   25.7512 C   0  0  0  0  0  0  0  0  0  0  0  0
    8.3978   -4.7247   26.6908 C   0  0  0  0  0  0  0  0  0  0  0  0
    7.0756   -5.1749   24.2822 C   0  0  0  0  0  0  0  0  0  0  0  0
   12.6131   -1.3037   22.6603 C   0  0  0  0  0  0  0  0  0  0  0  0
   11.8440   -0.1803   24.7756 C   0  0  0  0  0  0  0  0  0  0  0  0
   11.2460   -1.9951   22.5842 C   0  0  0  0  0  0  0  0  0  0  0  0
   10.5040   -0.9100   24.6221 C   0  0  0  0  0  0  0  0  0  0  0  0
   12.5382    0.0145   23.4281 C   0  0  0  0  0  0  0  0  0  0  0  0
   11.2180   -3.2349   24.6768 C   0  0  0  0  0  0  0  0  0  0  0  0
   10.5919   -2.1779   23.8862 N   0  0  0  0  0  0  0  0  0  0  0  0
    5.3768   -3.9958   22.6004 N   0  0  0  0  0  0  0  0  0  0  0  0
    7.2440   -5.5342   21.7101 O   0  0  0  0  0  0  0  0  0  0  0  0
    5.3021   -6.5462   22.9561 O   0  0  0  0  0  0  0  0  0  0  0  0
   11.8116    0.9584   22.6436 O   0  0  0  0  0  0  0  0  0  0  0  0
    9.3808   -4.3589   28.0595 S   0  0  0  0  0  0  0  0  0  0  0  0
    6.2485   -5.4555   22.7696 S   0  0  0  0  0  0  0  0  0  0  0  0
    6.6497   -5.6247   27.6262 H   0  0  0  0  0  0  0  0  0  0  0  0
    5.4959   -6.0142   25.4807 H   0  0  0  0  0  0  0  0  0  0  0  0
    8.7996   -4.2861   23.3400 H   0  0  0  0  0  0  0  0  0  0  0  0
   11.5147   -3.3052   27.5447 H   0  0  0  0  0  0  0  0  0  0  0  0
   13.3440   -1.9696   23.1371 H   0  0  0  0  0  0  0  0  0  0  0  0
   12.9976   -1.1225   21.6465 H   0  0  0  0  0  0  0  0  0  0  0  0
   11.6867    0.7951   25.2572 H   0  0  0  0  0  0  0  0  0  0  0  0
   12.4998   -0.7415   25.4534 H   0  0  0  0  0  0  0  0  0  0  0  0
   10.5959   -1.3849   21.9242 H   0  0  0  0  0  0  0  0  0  0  0  0
   11.3612   -2.9714   22.0658 H   0  0  0  0  0  0  0  0  0  0  0  0
   10.0621   -1.0738   25.6285 H   0  0  0  0  0  0  0  0  0  0  0  0
    9.8054   -0.2254   24.0989 H   0  0  0  0  0  0  0  0  0  0  0  0
   13.5483    0.4117   23.5779 H   0  0  0  0  0  0  0  0  0  0  0  0
   12.1375   -2.8299   25.1134 H   0  0  0  0  0  0  0  0  0  0  0  0
   11.5096   -4.0376   23.9914 H   0  0  0  0  0  0  0  0  0  0  0  0
    5.6837   -3.3323   21.8786 H   0  0  0  0  0  0  0  0  0  0  0  0
    4.3584   -4.0247   22.7316 H   0  0  0  0  0  0  0  0  0  0  0  0
   12.2994    1.0643   21.8111 H   0  0  0  0  0  0  0  0  0  0  0  0
  1  2  2  0  0  0  0
  1  7  1  0  0  0  0
  1 22  1  0  0  0  0
  2  8  1  0  0  0  0
  2 23  1  0  0  0  0
  3  5  1  0  0  0  0
  3  8  2  0  0  0  0
  3 24  1  0  0  0  0
  4  6  2  0  0  0  0
  4 20  1  0  0  0  0
  4 25  1  0  0  0  0
  5  6  1  0  0  0  0
  5  7  2  0  0  0  0
  6 14  1  0  0  0  0
  7 20  1  0  0  0  0
  8 21  1  0  0  0  0
  9 11  1  0  0  0  0
  9 13  1  0  0  0  0
  9 26  1  0  0  0  0
  9 27  1  0  0  0  0
 10 12  1  0  0  0  0
 10 13  1  0  0  0  0
 10 28  1  0  0  0  0
 10 29  1  0  0  0  0
 11 15  1  0  0  0  0
 11 30  1  0  0  0  0
 11 31  1  0  0  0  0
 12 15  1  0  0  0  0
 12 32  1  0  0  0  0
 12 33  1  0  0  0  0
 13 19  1  0  0  0  0
 13 34  1  0  0  0  0
 14 15  1  0  0  0  0
 14 35  1  0  0  0  0
 14 36  1  0  0  0  0
 16 21  1  0  0  0  0
 16 37  1  0  0  0  0
 16 38  1  0  0  0  0
 17 21  2  0  0  0  0
 18 21  2  0  0  0  0
 19 39  1  0  0  0  0
M  END
>  <Chemgauss4 Score>
-5.27414512634277

>  <Number of Confs>
82

$$$$
