GIA-UNK-995-7
 OpenBabel03242009303D

 31 31  0  0  0  0  0  0  0  0999 V2000
   10.2346   -1.1662   24.2522 C   0  0  0  0  0  0  0  0  0  0  0  0
    7.5892   -5.2628   25.7620 C   0  0  0  0  0  0  0  0  0  0  0  0
   10.5678   -3.5705   24.7996 C   0  0  0  0  0  0  0  0  0  0  0  0
    8.6548   -2.8499   23.2882 C   0  0  0  0  0  0  0  0  0  0  0  0
    9.5510   -3.7642   25.9231 C   0  0  0  0  0  0  0  0  0  0  0  0
    7.6940   -3.0843   24.4547 C   0  0  0  0  0  0  0  0  0  0  0  0
   10.0914   -2.5704   23.7414 C   0  0  0  0  0  0  0  0  0  0  0  0
    5.6937   -6.8432   25.6399 C   0  0  0  0  0  0  0  0  0  0  0  0
    6.2341   -5.5208   25.1529 C   0  0  0  0  0  0  0  0  0  0  0  0
   12.5303   -0.1129   23.1838 C   0  0  0  0  0  0  0  0  0  0  0  0
    8.2325   -4.0865   25.3792 N   0  0  0  0  0  0  0  0  0  0  0  0
    9.2958   -0.3825   24.3247 O   0  0  0  0  0  0  0  0  0  0  0  0
    8.0610   -6.0843   26.5523 O   0  0  0  0  0  0  0  0  0  0  0  0
   12.4900   -1.0889   22.2379 F   0  0  0  0  0  0  0  0  0  0  0  0
   11.8781   -0.7533   24.7394 S   0  0  0  0  0  0  0  0  0  0  0  0
   11.5229   -3.2463   25.2302 H   0  0  0  0  0  0  0  0  0  0  0  0
   10.7495   -4.5396   24.3172 H   0  0  0  0  0  0  0  0  0  0  0  0
    8.6531   -3.7424   22.6492 H   0  0  0  0  0  0  0  0  0  0  0  0
    8.2809   -2.0206   22.6757 H   0  0  0  0  0  0  0  0  0  0  0  0
    9.8976   -4.5520   26.5996 H   0  0  0  0  0  0  0  0  0  0  0  0
    9.4479   -2.8490   26.5177 H   0  0  0  0  0  0  0  0  0  0  0  0
    7.5461   -2.1618   25.0276 H   0  0  0  0  0  0  0  0  0  0  0  0
    6.7169   -3.3721   24.0624 H   0  0  0  0  0  0  0  0  0  0  0  0
   10.7563   -2.6375   22.8713 H   0  0  0  0  0  0  0  0  0  0  0  0
    6.3667   -7.6530   25.3421 H   0  0  0  0  0  0  0  0  0  0  0  0
    4.7028   -7.0469   25.2199 H   0  0  0  0  0  0  0  0  0  0  0  0
    5.6006   -6.8584   26.7309 H   0  0  0  0  0  0  0  0  0  0  0  0
    5.5807   -4.6973   25.4373 H   0  0  0  0  0  0  0  0  0  0  0  0
    6.3590   -5.5214   24.0710 H   0  0  0  0  0  0  0  0  0  0  0  0
   13.5709    0.2013   23.2988 H   0  0  0  0  0  0  0  0  0  0  0  0
   11.9284    0.7267   22.8265 H   0  0  0  0  0  0  0  0  0  0  0  0
  1  7  1  0  0  0  0
  1 12  2  0  0  0  0
  1 15  1  0  0  0  0
  2  9  1  0  0  0  0
  2 11  1  0  0  0  0
  2 13  2  0  0  0  0
  3  5  1  0  0  0  0
  3  7  1  0  0  0  0
  3 16  1  0  0  0  0
  3 17  1  0  0  0  0
  4  6  1  0  0  0  0
  4  7  1  0  0  0  0
  4 18  1  0  0  0  0
  4 19  1  0  0  0  0
  5 11  1  0  0  0  0
  5 20  1  0  0  0  0
  5 21  1  0  0  0  0
  6 11  1  0  0  0  0
  6 22  1  0  0  0  0
  6 23  1  0  0  0  0
  7 24  1  0  0  0  0
  8  9  1  0  0  0  0
  8 25  1  0  0  0  0
  8 26  1  0  0  0  0
  8 27  1  0  0  0  0
  9 28  1  0  0  0  0
  9 29  1  0  0  0  0
 10 14  1  0  0  0  0
 10 15  1  0  0  0  0
 10 30  1  0  0  0  0
 10 31  1  0  0  0  0
M  END
>  <Chemgauss4 Score>
-4.92742443084717

>  <Number of Confs>
200

$$$$
