AGN-NEW-c7b-6
 OpenBabel03242009303D

 33 34  0  0  0  0  0  0  0  0999 V2000
    8.6358   -0.8557   28.2008 C   0  0  0  0  0  0  0  0  0  0  0  0
    8.5604   -2.0326   27.9749 C   0  0  0  0  0  0  0  0  0  0  0  0
   11.3248    0.2885   24.5066 C   0  0  0  0  0  0  0  0  0  0  0  0
    8.2789   -6.1356   27.3824 C   0  0  0  0  0  0  0  0  0  0  0  0
   12.5257   -0.0230   23.8690 C   0  0  0  0  0  0  0  0  0  0  0  0
   10.1775   -0.4572   24.2360 C   0  0  0  0  0  0  0  0  0  0  0  0
    8.4504   -5.3255   26.2654 C   0  0  0  0  0  0  0  0  0  0  0  0
   11.4319   -1.8258   22.6898 C   0  0  0  0  0  0  0  0  0  0  0  0
    8.2128   -5.5234   28.6236 C   0  0  0  0  0  0  0  0  0  0  0  0
    8.4709   -3.4331   27.7059 C   0  0  0  0  0  0  0  0  0  0  0  0
   12.5792   -1.0801   22.9606 C   0  0  0  0  0  0  0  0  0  0  0  0
   10.2310   -1.5144   23.3275 C   0  0  0  0  0  0  0  0  0  0  0  0
    8.5493   -3.9474   26.4216 C   0  0  0  0  0  0  0  0  0  0  0  0
    8.8179   -3.5177   23.9542 C   0  0  0  0  0  0  0  0  0  0  0  0
   13.8639   -1.4134   22.2803 C   0  0  0  0  0  0  0  0  0  0  0  0
    9.0040   -2.3113   23.0376 C   0  0  0  0  0  0  0  0  0  0  0  0
    8.3047   -4.1883   28.8148 N   0  0  0  0  0  0  0  0  0  0  0  0
    8.7247   -3.1213   25.2859 N   0  0  0  0  0  0  0  0  0  0  0  0
    8.7668   -4.6619   23.5143 O   0  0  0  0  0  0  0  0  0  0  0  0
    8.7032    0.1881   28.4010 H   0  0  0  0  0  0  0  0  0  0  0  0
   11.2833    1.1117   25.2141 H   0  0  0  0  0  0  0  0  0  0  0  0
    8.1988   -7.2122   27.2845 H   0  0  0  0  0  0  0  0  0  0  0  0
   13.4147    0.5633   24.0866 H   0  0  0  0  0  0  0  0  0  0  0  0
    9.2461   -0.2069   24.7369 H   0  0  0  0  0  0  0  0  0  0  0  0
    8.5055   -5.7791   25.2793 H   0  0  0  0  0  0  0  0  0  0  0  0
   11.4732   -2.6507   21.9824 H   0  0  0  0  0  0  0  0  0  0  0  0
    8.0790   -6.1108   29.5260 H   0  0  0  0  0  0  0  0  0  0  0  0
   14.4304   -2.1439   22.8708 H   0  0  0  0  0  0  0  0  0  0  0  0
   13.6885   -1.8342   21.2817 H   0  0  0  0  0  0  0  0  0  0  0  0
   14.4858   -0.5192   22.1433 H   0  0  0  0  0  0  0  0  0  0  0  0
    8.1063   -1.6769   23.1231 H   0  0  0  0  0  0  0  0  0  0  0  0
    9.0205   -2.6722   21.9961 H   0  0  0  0  0  0  0  0  0  0  0  0
    8.7904   -2.1211   25.4631 H   0  0  0  0  0  0  0  0  0  0  0  0
  1  2  3  0  0  0  0
  1 20  1  0  0  0  0
  2 10  1  0  0  0  0
  3  5  1  0  0  0  0
  3  6  2  0  0  0  0
  3 21  1  0  0  0  0
  4  7  2  0  0  0  0
  4  9  1  0  0  0  0
  4 22  1  0  0  0  0
  5 11  2  0  0  0  0
  5 23  1  0  0  0  0
  6 12  1  0  0  0  0
  6 24  1  0  0  0  0
  7 13  1  0  0  0  0
  7 25  1  0  0  0  0
  8 11  1  0  0  0  0
  8 12  2  0  0  0  0
  8 26  1  0  0  0  0
  9 17  2  0  0  0  0
  9 27  1  0  0  0  0
 10 13  2  0  0  0  0
 10 17  1  0  0  0  0
 11 15  1  0  0  0  0
 12 16  1  0  0  0  0
 13 18  1  0  0  0  0
 14 16  1  0  0  0  0
 14 18  1  0  0  0  0
 14 19  2  0  0  0  0
 15 28  1  0  0  0  0
 15 29  1  0  0  0  0
 15 30  1  0  0  0  0
 16 31  1  0  0  0  0
 16 32  1  0  0  0  0
 18 33  1  0  0  0  0
M  END
>  <Chemgauss4 Score>
-5.67219495773315

>  <Number of Confs>
20

$$$$
