DUN-NEW-f8c-1
 OpenBabel03242009303D

 42 44  0  0  1  0  0  0  0  0999 V2000
   13.5280   -0.1444   22.7930 C   0  0  0  0  0  0  0  0  0  0  0  0
   12.8002    0.3070   23.8939 C   0  0  0  0  0  0  0  0  0  0  0  0
   13.0445   -1.2026   22.0235 C   0  0  0  0  0  0  0  0  0  0  0  0
   11.5889   -0.3000   24.2255 C   0  0  0  0  0  0  0  0  0  0  0  0
   11.8332   -1.8095   22.3551 C   0  0  0  0  0  0  0  0  0  0  0  0
   11.1053   -1.3583   23.4561 C   0  0  0  0  0  0  0  0  0  0  0  0
    7.8527   -1.7572   22.2646 C   0  0  0  0  0  0  0  0  0  0  0  0
    7.4526   -6.0287   24.8503 C   0  0  0  0  0  0  0  0  0  0  0  0
    9.0102   -5.1886   26.6389 C   0  0  0  0  0  0  0  0  0  0  0  0
    9.9435   -3.1943   24.7849 C   0  0  0  0  0  0  0  0  0  0  0  0
    8.5803   -4.0022   23.0773 C   0  0  0  0  0  0  0  0  0  0  0  0
    6.3047   -5.5217   25.7174 C   0  0  0  0  0  0  0  0  0  0  0  0
    7.7697   -4.7409   27.4061 C   0  0  0  0  0  0  0  0  0  0  0  0
    9.7919   -2.0171   23.8153 C   0  0  2  0  0  0  0  0  0  0  0  0
    9.0323   -2.6151   22.6147 C   0  0  2  0  0  0  0  0  0  0  0  0
    8.7503   -5.2690   25.1326 C   0  0  0  0  0  0  0  0  0  0  0  0
    8.7174   -3.9531   24.5362 N   0  0  1  0  0  0  0  0  0  0  0  0
    8.1126   -0.8312   21.2821 N   0  0  0  0  0  0  0  0  0  0  0  0
    6.7593   -1.8979   22.8068 O   0  0  0  0  0  0  0  0  0  0  0  0
    6.6540   -5.5757   27.0998 O   0  0  0  0  0  0  0  0  0  0  0  0
   14.4705    0.3292   22.5341 H   0  0  0  0  0  0  0  0  0  0  0  0
   13.1760    1.1316   24.4925 H   0  0  0  0  0  0  0  0  0  0  0  0
   13.6104   -1.5535   21.1656 H   0  0  0  0  0  0  0  0  0  0  0  0
   11.0286    0.0582   25.0852 H   0  0  0  0  0  0  0  0  0  0  0  0
   11.4643   -2.6335   21.7499 H   0  0  0  0  0  0  0  0  0  0  0  0
    7.6232   -7.0873   25.0855 H   0  0  0  0  0  0  0  0  0  0  0  0
    7.1807   -5.9758   23.7898 H   0  0  0  0  0  0  0  0  0  0  0  0
    9.8565   -4.5291   26.8640 H   0  0  0  0  0  0  0  0  0  0  0  0
    9.2875   -6.1925   26.9866 H   0  0  0  0  0  0  0  0  0  0  0  0
   10.8400   -3.7878   24.5590 H   0  0  0  0  0  0  0  0  0  0  0  0
   10.0088   -2.8508   25.8231 H   0  0  0  0  0  0  0  0  0  0  0  0
    7.5529   -4.2409   22.7823 H   0  0  0  0  0  0  0  0  0  0  0  0
    9.2479   -4.7591   22.6449 H   0  0  0  0  0  0  0  0  0  0  0  0
    6.0136   -4.4988   25.4519 H   0  0  0  0  0  0  0  0  0  0  0  0
    5.4254   -6.1577   25.5731 H   0  0  0  0  0  0  0  0  0  0  0  0
    7.9552   -4.8176   28.4824 H   0  0  0  0  0  0  0  0  0  0  0  0
    7.5148   -3.6966   27.1913 H   0  0  0  0  0  0  0  0  0  0  0  0
    9.1672   -1.2278   24.3050 H   0  0  0  0  0  0  0  0  0  0  0  0
    9.6563   -2.6980   21.7170 H   0  0  0  0  0  0  0  0  0  0  0  0
    9.5902   -5.8278   24.6615 H   0  0  0  0  0  0  0  0  0  0  0  0
    9.0439   -0.7954   20.8807 H   0  0  0  0  0  0  0  0  0  0  0  0
    7.4105   -0.1821   20.9421 H   0  0  0  0  0  0  0  0  0  0  0  0
  1  2  1  0  0  0  0
  1  3  2  0  0  0  0
  1 21  1  0  0  0  0
  2  4  2  0  0  0  0
  2 22  1  0  0  0  0
  3  5  1  0  0  0  0
  3 23  1  0  0  0  0
  4  6  1  0  0  0  0
  4 24  1  0  0  0  0
  5  6  2  0  0  0  0
  5 25  1  0  0  0  0
  6 14  1  0  0  0  0
  7 15  1  0  0  0  0
  7 18  1  0  0  0  0
  7 19  2  0  0  0  0
  8 12  1  0  0  0  0
  8 16  1  0  0  0  0
  8 26  1  0  0  0  0
  8 27  1  0  0  0  0
  9 13  1  0  0  0  0
  9 16  1  0  0  0  0
  9 28  1  0  0  0  0
  9 29  1  0  0  0  0
 10 14  1  0  0  0  0
 10 17  1  0  0  0  0
 10 30  1  0  0  0  0
 10 31  1  0  0  0  0
 11 15  1  0  0  0  0
 11 17  1  0  0  0  0
 11 32  1  0  0  0  0
 11 33  1  0  0  0  0
 12 20  1  0  0  0  0
 12 34  1  0  0  0  0
 12 35  1  0  0  0  0
 13 20  1  0  0  0  0
 13 36  1  0  0  0  0
 13 37  1  0  0  0  0
 14 15  1  0  0  0  0
 14 38  1  1  0  0  0
 15 39  1  6  0  0  0
 16 40  1  0  0  0  0
 17 16  1  6  0  0  0
 18 41  1  0  0  0  0
 18 42  1  0  0  0  0
M  END
>  <Chemgauss4 Score>
-5.3497200012207

>  <Number of Confs>
21

$$$$
