ANN-UNI-263-7
 OpenBabel03242009303D

 37 39  0  0  1  0  0  0  0  0999 V2000
   12.0184   -0.4409   23.7032 C   0  0  0  0  0  0  0  0  0  0  0  0
   12.6532   -1.9486   21.9402 C   0  0  0  0  0  0  0  0  0  0  0  0
    6.4035   -3.9309   25.9690 C   0  0  0  0  0  0  0  0  0  0  0  0
   13.3237    0.0241   23.7022 C   0  0  0  0  0  0  0  0  0  0  0  0
   13.9300   -1.4160   22.0180 C   0  0  0  0  0  0  0  0  0  0  0  0
    5.2510   -4.6780   26.0739 C   0  0  0  0  0  0  0  0  0  0  0  0
    6.4341   -5.0967   23.9585 C   0  0  0  0  0  0  0  0  0  0  0  0
    7.0889   -4.1732   24.7436 C   0  0  0  0  0  0  0  0  0  0  0  0
   11.6850   -1.4462   22.8024 C   0  0  0  0  0  0  0  0  0  0  0  0
    9.4931   -5.0967   26.0022 C   0  0  0  0  0  0  0  0  0  0  0  0
    8.8862   -3.9582   22.9986 C   0  0  0  0  0  0  0  0  0  0  0  0
   10.7805   -3.7538   24.3585 C   0  0  0  0  0  0  0  0  0  0  0  0
    8.3526   -3.5120   24.3625 C   0  0  2  0  0  0  0  0  0  0  0  0
    9.5580   -3.7769   25.2875 C   0  0  1  0  0  0  0  0  0  0  0  0
   10.2852   -1.9875   22.7613 C   0  0  0  0  0  0  0  0  0  0  0  0
   14.2915   -0.4392   22.8799 N   0  0  0  0  0  0  0  0  0  0  0  0
   10.2455   -3.4157   23.0353 N   0  0  0  0  0  0  0  0  0  0  0  0
   10.1367   -5.1016   27.2171 N   0  0  0  0  0  0  0  0  0  0  0  0
    8.8992   -6.0645   25.5332 O   0  0  0  0  0  0  0  0  0  0  0  0
    4.9991   -5.6669   24.6987 S   0  0  0  0  0  0  0  0  0  0  0  0
   11.2866   -0.0284   24.3895 H   0  0  0  0  0  0  0  0  0  0  0  0
   12.4238   -2.7323   21.2265 H   0  0  0  0  0  0  0  0  0  0  0  0
    6.7357   -3.2445   26.7377 H   0  0  0  0  0  0  0  0  0  0  0  0
   13.6349    0.8066   24.3865 H   0  0  0  0  0  0  0  0  0  0  0  0
   14.7210   -1.7737   21.3672 H   0  0  0  0  0  0  0  0  0  0  0  0
    4.5452   -4.6911   26.8924 H   0  0  0  0  0  0  0  0  0  0  0  0
    6.7268   -5.4673   22.9859 H   0  0  0  0  0  0  0  0  0  0  0  0
    8.8788   -5.0522   22.9006 H   0  0  0  0  0  0  0  0  0  0  0  0
    8.2997   -3.5297   22.1786 H   0  0  0  0  0  0  0  0  0  0  0  0
   11.4965   -2.9882   24.6768 H   0  0  0  0  0  0  0  0  0  0  0  0
   11.3006   -4.7204   24.3575 H   0  0  0  0  0  0  0  0  0  0  0  0
    8.1696   -2.4287   24.3329 H   0  0  0  0  0  0  0  0  0  0  0  0
    9.6261   -2.9923   26.0501 H   0  0  0  0  0  0  0  0  0  0  0  0
    9.6547   -1.4842   23.5024 H   0  0  0  0  0  0  0  0  0  0  0  0
    9.8286   -1.8221   21.7798 H   0  0  0  0  0  0  0  0  0  0  0  0
   10.5903   -4.2501   27.5313 H   0  0  0  0  0  0  0  0  0  0  0  0
   10.1763   -5.9227   27.8122 H   0  0  0  0  0  0  0  0  0  0  0  0
  1  4  2  0  0  0  0
  1  9  1  0  0  0  0
  1 21  1  0  0  0  0
  2  5  1  0  0  0  0
  2  9  2  0  0  0  0
  2 22  1  0  0  0  0
  3  6  2  0  0  0  0
  3  8  1  0  0  0  0
  3 23  1  0  0  0  0
  4 16  1  0  0  0  0
  4 24  1  0  0  0  0
  5 16  2  0  0  0  0
  5 25  1  0  0  0  0
  6 20  1  0  0  0  0
  6 26  1  0  0  0  0
  7  8  2  0  0  0  0
  7 20  1  0  0  0  0
  7 27  1  0  0  0  0
  8 13  1  0  0  0  0
  9 15  1  0  0  0  0
 10 14  1  0  0  0  0
 10 18  1  0  0  0  0
 10 19  2  0  0  0  0
 11 13  1  0  0  0  0
 11 17  1  0  0  0  0
 11 28  1  0  0  0  0
 11 29  1  0  0  0  0
 12 14  1  0  0  0  0
 12 17  1  0  0  0  0
 12 30  1  0  0  0  0
 12 31  1  0  0  0  0
 13 14  1  0  0  0  0
 13 32  1  6  0  0  0
 14 33  1  1  0  0  0
 15 17  1  0  0  0  0
 15 34  1  0  0  0  0
 15 35  1  0  0  0  0
 18 36  1  0  0  0  0
 18 37  1  0  0  0  0
M  END
>  <Chemgauss4 Score>
-7.20338249206543

>  <Number of Confs>
32

$$$$
