CHR-SOS-363-1
 OpenBabel03242009303D

 27 28  0  0  0  0  0  0  0  0999 V2000
    7.0229   -5.7496   28.2697 C   0  0  0  0  0  0  0  0  0  0  0  0
   13.4400   -0.7688   22.4427 C   0  0  0  0  0  0  0  0  0  0  0  0
   12.5084   -1.8008   22.4586 C   0  0  0  0  0  0  0  0  0  0  0  0
    7.9083   -4.9556   26.1251 C   0  0  0  0  0  0  0  0  0  0  0  0
   13.1958    0.3376   23.2403 C   0  0  0  0  0  0  0  0  0  0  0  0
    5.8658   -6.1736   26.1547 C   0  0  0  0  0  0  0  0  0  0  0  0
   11.2254   -0.5486   24.0213 C   0  0  0  0  0  0  0  0  0  0  0  0
    6.6876   -5.4341   24.1408 C   0  0  0  0  0  0  0  0  0  0  0  0
    6.9313   -5.6271   26.8516 C   0  0  0  0  0  0  0  0  0  0  0  0
   11.3771   -1.6965   23.2602 C   0  0  0  0  0  0  0  0  0  0  0  0
    7.7916   -4.8527   24.7434 C   0  0  0  0  0  0  0  0  0  0  0  0
    9.5784   -3.0964   24.3664 C   0  0  0  0  0  0  0  0  0  0  0  0
    7.0973   -5.8493   29.4236 N   0  0  0  0  0  0  0  0  0  0  0  0
   12.1087    0.4748   24.0320 N   0  0  0  0  0  0  0  0  0  0  0  0
    5.7182   -6.0941   24.8133 N   0  0  0  0  0  0  0  0  0  0  0  0
   10.4115   -2.7300   23.2973 N   0  0  0  0  0  0  0  0  0  0  0  0
    8.7539   -4.1862   23.9886 N   0  0  0  0  0  0  0  0  0  0  0  0
    9.5604   -2.5579   25.4687 O   0  0  0  0  0  0  0  0  0  0  0  0
   14.3291   -0.8286   21.8255 H   0  0  0  0  0  0  0  0  0  0  0  0
   12.6737   -2.6811   21.8431 H   0  0  0  0  0  0  0  0  0  0  0  0
    8.7622   -4.5110   26.6322 H   0  0  0  0  0  0  0  0  0  0  0  0
   13.8916    1.1699   23.2627 H   0  0  0  0  0  0  0  0  0  0  0  0
    5.0700   -6.7103   26.6634 H   0  0  0  0  0  0  0  0  0  0  0  0
   10.3634   -0.4092   24.6670 H   0  0  0  0  0  0  0  0  0  0  0  0
    6.5415   -5.3876   23.0657 H   0  0  0  0  0  0  0  0  0  0  0  0
   10.3081   -3.2743   22.4447 H   0  0  0  0  0  0  0  0  0  0  0  0
    8.8968   -4.5181   23.0277 H   0  0  0  0  0  0  0  0  0  0  0  0
  1  9  1  0  0  0  0
  1 13  3  0  0  0  0
  2  3  2  0  0  0  0
  2  5  1  0  0  0  0
  2 19  1  0  0  0  0
  3 10  1  0  0  0  0
  3 20  1  0  0  0  0
  4  9  2  0  0  0  0
  4 11  1  0  0  0  0
  4 21  1  0  0  0  0
  5 14  2  0  0  0  0
  5 22  1  0  0  0  0
  6  9  1  0  0  0  0
  6 15  2  0  0  0  0
  6 23  1  0  0  0  0
  7 10  2  0  0  0  0
  7 14  1  0  0  0  0
  7 24  1  0  0  0  0
  8 11  2  0  0  0  0
  8 15  1  0  0  0  0
  8 25  1  0  0  0  0
 10 16  1  0  0  0  0
 11 17  1  0  0  0  0
 12 16  1  0  0  0  0
 12 17  1  0  0  0  0
 12 18  2  0  0  0  0
 16 26  1  0  0  0  0
 17 27  1  0  0  0  0
M  END
>  <Chemgauss4 Score>
-5.09509563446045

>  <Number of Confs>
12

$$$$
