CHR-SOS-709-15
 OpenBabel03242009303D

 40 42  0  0  0  0  0  0  0  0999 V2000
    8.7586   -6.4477   28.2967 C   0  0  0  0  0  0  0  0  0  0  0  0
    8.1561   -4.2807   22.7227 C   0  0  0  0  0  0  0  0  0  0  0  0
    7.3225   -2.4804   24.1014 C   0  0  0  0  0  0  0  0  0  0  0  0
   10.0647   -2.0060   21.9537 C   0  0  0  0  0  0  0  0  0  0  0  0
    9.1955   -5.8348   27.1276 C   0  0  0  0  0  0  0  0  0  0  0  0
    6.9330   -4.9400   22.8440 C   0  0  0  0  0  0  0  0  0  0  0  0
    6.0993   -3.1396   24.2227 C   0  0  0  0  0  0  0  0  0  0  0  0
   11.2835   -1.3448   21.8029 C   0  0  0  0  0  0  0  0  0  0  0  0
   11.6120   -1.4046   24.1957 C   0  0  0  0  0  0  0  0  0  0  0  0
    8.4728   -5.6393   29.3850 C   0  0  0  0  0  0  0  0  0  0  0  0
    9.0197   -3.7326   28.2259 C   0  0  0  0  0  0  0  0  0  0  0  0
    8.3510   -3.0509   23.3514 C   0  0  0  0  0  0  0  0  0  0  0  0
    9.6194   -2.3664   23.2255 C   0  0  0  0  0  0  0  0  0  0  0  0
   10.3931   -2.0658   24.3465 C   0  0  0  0  0  0  0  0  0  0  0  0
    9.3313   -4.4517   27.0832 C   0  0  0  0  0  0  0  0  0  0  0  0
    5.9045   -4.3695   23.5940 C   0  0  0  0  0  0  0  0  0  0  0  0
   12.0572   -1.0441   22.9239 C   0  0  0  0  0  0  0  0  0  0  0  0
    9.9647   -2.4258   25.6936 C   0  0  0  0  0  0  0  0  0  0  0  0
    8.5925   -4.2927   29.3797 N   0  0  0  0  0  0  0  0  0  0  0  0
    4.6474   -6.1386   25.1415 N   0  0  0  0  0  0  0  0  0  0  0  0
    9.7748   -3.7983   25.9058 N   0  0  0  0  0  0  0  0  0  0  0  0
    9.7567   -1.5661   26.5577 O   0  0  0  0  0  0  0  0  0  0  0  0
    3.3457   -4.2054   24.0397 O   0  0  0  0  0  0  0  0  0  0  0  0
    4.2131   -6.0844   22.6028 O   0  0  0  0  0  0  0  0  0  0  0  0
    4.3729   -5.1944   23.7442 S   0  0  0  0  0  0  0  0  0  0  0  0
   13.5618   -0.2288   22.7379 Cl  0  0  0  0  0  0  0  0  0  0  0  0
    8.6454   -7.5243   28.3540 H   0  0  0  0  0  0  0  0  0  0  0  0
    8.9482   -4.7385   22.1350 H   0  0  0  0  0  0  0  0  0  0  0  0
    7.4586   -1.5224   24.5978 H   0  0  0  0  0  0  0  0  0  0  0  0
    9.4740   -2.2329   21.0692 H   0  0  0  0  0  0  0  0  0  0  0  0
    9.4272   -6.4438   26.2578 H   0  0  0  0  0  0  0  0  0  0  0  0
    6.7915   -5.8978   22.3505 H   0  0  0  0  0  0  0  0  0  0  0  0
    5.3047   -2.6870   24.8094 H   0  0  0  0  0  0  0  0  0  0  0  0
   11.6177   -1.0696   20.8059 H   0  0  0  0  0  0  0  0  0  0  0  0
   12.2150   -1.1710   25.0709 H   0  0  0  0  0  0  0  0  0  0  0  0
    8.1295   -6.0689   30.3204 H   0  0  0  0  0  0  0  0  0  0  0  0
    9.1055   -2.6504   28.2527 H   0  0  0  0  0  0  0  0  0  0  0  0
    4.1627   -5.8709   26.0069 H   0  0  0  0  0  0  0  0  0  0  0  0
    4.7568   -7.1532   25.0238 H   0  0  0  0  0  0  0  0  0  0  0  0
    9.9815   -4.4024   25.1142 H   0  0  0  0  0  0  0  0  0  0  0  0
  1  5  2  0  0  0  0
  1 10  1  0  0  0  0
  1 27  1  0  0  0  0
  2  6  2  0  0  0  0
  2 12  1  0  0  0  0
  2 28  1  0  0  0  0
  3  7  1  0  0  0  0
  3 12  2  0  0  0  0
  3 29  1  0  0  0  0
  4  8  2  0  0  0  0
  4 13  1  0  0  0  0
  4 30  1  0  0  0  0
  5 15  1  0  0  0  0
  5 31  1  0  0  0  0
  6 16  1  0  0  0  0
  6 32  1  0  0  0  0
  7 16  2  0  0  0  0
  7 33  1  0  0  0  0
  8 17  1  0  0  0  0
  8 34  1  0  0  0  0
  9 14  1  0  0  0  0
  9 17  2  0  0  0  0
  9 35  1  0  0  0  0
 10 19  2  0  0  0  0
 10 36  1  0  0  0  0
 11 15  2  0  0  0  0
 11 19  1  0  0  0  0
 11 37  1  0  0  0  0
 12 13  1  0  0  0  0
 13 14  2  0  0  0  0
 14 18  1  0  0  0  0
 15 21  1  0  0  0  0
 16 25  1  0  0  0  0
 17 26  1  0  0  0  0
 18 21  1  0  0  0  0
 18 22  2  0  0  0  0
 20 25  1  0  0  0  0
 20 38  1  0  0  0  0
 20 39  1  0  0  0  0
 21 40  1  0  0  0  0
 23 25  2  0  0  0  0
 24 25  2  0  0  0  0
M  END
>  <Chemgauss4 Score>
-4.81668329238892

>  <Number of Confs>
76

$$$$
