SAL-INS-1c7-9
 OpenBabel03242009303D

 43 45  0  0  1  0  0  0  0  0999 V2000
    7.2653   -3.5579   22.4654 C   0  0  0  0  0  0  0  0  0  0  0  0
    7.9418   -2.5792   23.1933 C   0  0  0  0  0  0  0  0  0  0  0  0
    8.2750   -5.2739   23.8340 C   0  0  0  0  0  0  0  0  0  0  0  0
    9.1842   -3.9171   28.0597 C   0  0  0  0  0  0  0  0  0  0  0  0
    7.9363   -5.6684   28.5415 C   0  0  0  0  0  0  0  0  0  0  0  0
    7.4318   -4.9053   22.7858 C   0  0  0  0  0  0  0  0  0  0  0  0
    8.9517   -4.2951   24.5619 C   0  0  0  0  0  0  0  0  0  0  0  0
    8.7850   -2.9477   24.2415 C   0  0  0  0  0  0  0  0  0  0  0  0
    9.1564   -4.8163   27.0198 C   0  0  0  0  0  0  0  0  0  0  0  0
   10.8458   -0.0809   24.2371 C   0  0  0  0  0  0  0  0  0  0  0  0
   11.5074    0.2298   23.1181 C   0  0  0  0  0  0  0  0  0  0  0  0
    8.8005   -1.3892   26.1293 C   0  0  0  0  0  0  0  0  0  0  0  0
   11.3297   -2.3394   23.4563 C   0  0  0  0  0  0  0  0  0  0  0  0
   10.8249   -1.5251   24.6464 C   0  0  2  0  0  0  0  0  0  0  0  0
    6.7101   -5.9519   22.0057 C   0  0  0  0  0  0  0  0  0  0  0  0
    9.8509   -4.7189   25.6778 C   0  0  0  0  0  0  0  0  0  0  0  0
    7.3755   -1.8881   26.2915 C   0  0  0  0  0  0  0  0  0  0  0  0
    8.3776   -5.9041   27.3259 N   0  0  0  0  0  0  0  0  0  0  0  0
    8.3978   -4.4765   29.0270 N   0  0  0  0  0  0  0  0  0  0  0  0
    9.4780   -1.9170   24.9845 N   0  0  0  0  0  0  0  0  0  0  0  0
    9.2653   -0.5726   26.9286 O   0  0  0  0  0  0  0  0  0  0  0  0
   13.6160   -1.2419   22.7277 O   0  0  0  0  0  0  0  0  0  0  0  0
   11.7255   -1.3369   21.0458 O   0  0  0  0  0  0  0  0  0  0  0  0
   12.2046   -1.1809   22.4040 S   0  0  0  0  0  0  0  0  0  0  0  0
    6.2536   -0.8243   25.4168 Cl  0  0  0  0  0  0  0  0  0  0  0  0
    6.6103   -3.2615   21.6504 H   0  0  0  0  0  0  0  0  0  0  0  0
    7.8032   -1.5322   22.9351 H   0  0  0  0  0  0  0  0  0  0  0  0
    8.4053   -6.3249   24.0812 H   0  0  0  0  0  0  0  0  0  0  0  0
    9.6728   -2.9633   28.1980 H   0  0  0  0  0  0  0  0  0  0  0  0
    7.2878   -6.3117   29.1195 H   0  0  0  0  0  0  0  0  0  0  0  0
   10.3415    0.6737   24.8288 H   0  0  0  0  0  0  0  0  0  0  0  0
   11.5958    1.2204   22.6926 H   0  0  0  0  0  0  0  0  0  0  0  0
   12.0578   -3.0893   23.7883 H   0  0  0  0  0  0  0  0  0  0  0  0
   10.5403   -2.8378   22.8851 H   0  0  0  0  0  0  0  0  0  0  0  0
   11.4479   -1.7141   25.5250 H   0  0  0  0  0  0  0  0  0  0  0  0
    7.3164   -6.2776   21.1517 H   0  0  0  0  0  0  0  0  0  0  0  0
    6.4856   -6.8282   22.6276 H   0  0  0  0  0  0  0  0  0  0  0  0
    5.7503   -5.5762   21.6281 H   0  0  0  0  0  0  0  0  0  0  0  0
   10.3199   -5.6899   25.4448 H   0  0  0  0  0  0  0  0  0  0  0  0
   10.7061   -4.0276   25.7655 H   0  0  0  0  0  0  0  0  0  0  0  0
    7.2847   -2.8948   25.8761 H   0  0  0  0  0  0  0  0  0  0  0  0
    7.0690   -1.8725   27.3401 H   0  0  0  0  0  0  0  0  0  0  0  0
    8.1949   -4.0820   29.9357 H   0  0  0  0  0  0  0  0  0  0  0  0
  1  2  2  0  0  0  0
  1  6  1  0  0  0  0
  1 26  1  0  0  0  0
  2  8  1  0  0  0  0
  2 27  1  0  0  0  0
  3  6  2  0  0  0  0
  3  7  1  0  0  0  0
  3 28  1  0  0  0  0
  4  9  2  0  0  0  0
  4 19  1  0  0  0  0
  4 29  1  0  0  0  0
  5 18  2  0  0  0  0
  5 19  1  0  0  0  0
  5 30  1  0  0  0  0
  6 15  1  0  0  0  0
  7  8  2  0  0  0  0
  7 16  1  0  0  0  0
  8 20  1  0  0  0  0
  9 16  1  0  0  0  0
  9 18  1  0  0  0  0
 10 11  2  0  0  0  0
 10 14  1  0  0  0  0
 10 31  1  0  0  0  0
 11 24  1  0  0  0  0
 11 32  1  0  0  0  0
 12 17  1  0  0  0  0
 12 20  1  0  0  0  0
 12 21  2  0  0  0  0
 13 14  1  0  0  0  0
 13 24  1  0  0  0  0
 13 33  1  0  0  0  0
 13 34  1  0  0  0  0
 14 20  1  0  0  0  0
 14 35  1  1  0  0  0
 15 36  1  0  0  0  0
 15 37  1  0  0  0  0
 15 38  1  0  0  0  0
 16 39  1  0  0  0  0
 16 40  1  0  0  0  0
 17 25  1  0  0  0  0
 17 41  1  0  0  0  0
 17 42  1  0  0  0  0
 19 43  1  0  0  0  0
 22 24  2  0  0  0  0
 23 24  2  0  0  0  0
M  END
>  <Chemgauss4 Score>
-8.12044048309326

>  <Number of Confs>
156

$$$$
