KIM-UNI-60f-8
 OpenBabel03242009303D

 40 42  0  0  1  0  0  0  0  0999 V2000
   12.2497   -0.5644   22.4338 C   0  0  0  0  0  0  0  0  0  0  0  0
   13.1466    0.0551   23.2892 C   0  0  0  0  0  0  0  0  0  0  0  0
   11.8872   -0.4731   25.1366 C   0  0  0  0  0  0  0  0  0  0  0  0
   11.1234   -1.1592   22.9914 C   0  0  0  0  0  0  0  0  0  0  0  0
   10.9311   -1.1171   24.3678 C   0  0  0  0  0  0  0  0  0  0  0  0
    7.4525   -2.8099   26.0580 C   0  0  0  0  0  0  0  0  0  0  0  0
    7.4300   -1.5294   25.6890 C   0  0  0  0  0  0  0  0  0  0  0  0
    8.6454   -3.6307   25.9567 C   0  0  0  0  0  0  0  0  0  0  0  0
    9.7660   -3.0604   25.4410 C   0  0  0  0  0  0  0  0  0  0  0  0
    8.6371   -0.8976   25.1103 C   0  0  0  0  0  0  0  0  0  0  0  0
    7.5608   -5.1514   28.5990 C   0  0  0  0  0  0  0  0  0  0  0  0
   11.0626   -3.8536   25.4424 C   0  0  0  0  0  0  0  0  0  0  0  0
   11.0547   -5.0046   26.4463 C   0  0  0  0  0  0  0  0  0  0  0  0
    9.7860   -5.8299   26.3089 C   0  0  0  0  0  0  0  0  0  0  0  0
   10.1396   -1.8336   22.0924 C   0  0  0  0  0  0  0  0  0  0  0  0
    7.4787   -5.5414   27.1412 C   0  0  0  0  0  0  0  0  0  0  0  0
   12.9938    0.1163   24.6310 N   0  0  0  0  0  0  0  0  0  0  0  0
    9.7803   -1.7189   24.9943 N   0  0  0  0  0  0  0  0  0  0  0  0
    8.6068   -4.9634   26.4116 N   0  0  0  0  0  0  0  0  0  0  0  0
    8.2667   -6.0686   29.3476 N   0  0  0  0  0  0  0  0  0  0  0  0
    8.5398    0.2721   24.7362 O   0  0  0  0  0  0  0  0  0  0  0  0
    7.0927   -4.1131   29.0582 O   0  0  0  0  0  0  0  0  0  0  0  0
   12.4290   -0.5795   21.3642 H   0  0  0  0  0  0  0  0  0  0  0  0
   14.0409    0.5340   22.9042 H   0  0  0  0  0  0  0  0  0  0  0  0
   11.7933   -0.4072   26.2166 H   0  0  0  0  0  0  0  0  0  0  0  0
    6.5428   -3.2342   26.4681 H   0  0  0  0  0  0  0  0  0  0  0  0
    6.5332   -0.9280   25.7842 H   0  0  0  0  0  0  0  0  0  0  0  0
   11.2377   -4.2411   24.4311 H   0  0  0  0  0  0  0  0  0  0  0  0
   11.9124   -3.2096   25.6971 H   0  0  0  0  0  0  0  0  0  0  0  0
   11.9339   -5.6395   26.2881 H   0  0  0  0  0  0  0  0  0  0  0  0
   11.1292   -4.6084   27.4675 H   0  0  0  0  0  0  0  0  0  0  0  0
    9.7680   -6.3468   25.3418 H   0  0  0  0  0  0  0  0  0  0  0  0
    9.7806   -6.5947   27.0944 H   0  0  0  0  0  0  0  0  0  0  0  0
   10.4052   -2.8891   21.9626 H   0  0  0  0  0  0  0  0  0  0  0  0
    9.1239   -1.7765   22.5027 H   0  0  0  0  0  0  0  0  0  0  0  0
   10.1125   -1.3557   21.1053 H   0  0  0  0  0  0  0  0  0  0  0  0
    6.5559   -5.1685   26.6886 H   0  0  0  0  0  0  0  0  0  0  0  0
    7.5255   -6.6300   27.0507 H   0  0  0  0  0  0  0  0  0  0  0  0
    8.6662   -6.8959   28.9171 H   0  0  0  0  0  0  0  0  0  0  0  0
    8.4158   -5.9567   30.3454 H   0  0  0  0  0  0  0  0  0  0  0  0
  1  2  2  0  0  0  0
  1  4  1  0  0  0  0
  1 23  1  0  0  0  0
  2 17  1  0  0  0  0
  2 24  1  0  0  0  0
  3  5  1  0  0  0  0
  3 17  2  0  0  0  0
  3 25  1  0  0  0  0
  4  5  2  0  0  0  0
  4 15  1  0  0  0  0
  5 18  1  0  0  0  0
  6  7  2  0  0  0  0
  6  8  1  0  0  0  0
  6 26  1  0  0  0  0
  7 10  1  0  0  0  0
  7 27  1  0  0  0  0
  8  9  2  0  0  0  0
  8 19  1  0  0  0  0
  9 12  1  0  0  0  0
  9 18  1  0  0  0  0
 10 18  1  0  0  0  0
 10 21  2  0  0  0  0
 11 16  1  0  0  0  0
 11 20  1  0  0  0  0
 11 22  2  0  0  0  0
 12 13  1  0  0  0  0
 12 28  1  0  0  0  0
 12 29  1  0  0  0  0
 13 14  1  0  0  0  0
 13 30  1  0  0  0  0
 13 31  1  0  0  0  0
 14 19  1  0  0  0  0
 14 32  1  0  0  0  0
 14 33  1  0  0  0  0
 15 34  1  0  0  0  0
 15 35  1  0  0  0  0
 15 36  1  0  0  0  0
 16 19  1  0  0  0  0
 16 37  1  0  0  0  0
 16 38  1  0  0  0  0
 20 39  1  0  0  0  0
 20 40  1  0  0  0  0
M  END
>  <Chemgauss4 Score>
-5.2406210899353

>  <Number of Confs>
21

$$$$
