AGN-NEW-c7b-4
 OpenBabel03242009303D

 29 30  0  0  0  0  0  0  0  0999 V2000
   10.3913   -0.6801   26.3026 C   0  0  0  0  0  0  0  0  0  0  0  0
    6.1219   -4.6752   27.7959 C   0  0  0  0  0  0  0  0  0  0  0  0
   12.1353   -1.6830   22.6670 C   0  0  0  0  0  0  0  0  0  0  0  0
    7.4142   -5.1496   27.5716 C   0  0  0  0  0  0  0  0  0  0  0  0
   11.5055   -2.6910   23.3885 C   0  0  0  0  0  0  0  0  0  0  0  0
    5.4074   -4.0793   26.7566 C   0  0  0  0  0  0  0  0  0  0  0  0
    7.2779   -4.4321   25.2686 C   0  0  0  0  0  0  0  0  0  0  0  0
   12.1415   -0.4066   23.2060 C   0  0  0  0  0  0  0  0  0  0  0  0
   10.9709   -1.0877   25.0617 C   0  0  0  0  0  0  0  0  0  0  0  0
    7.9923   -5.0280   26.3080 C   0  0  0  0  0  0  0  0  0  0  0  0
   10.9096   -2.3960   24.6097 C   0  0  0  0  0  0  0  0  0  0  0  0
    5.9854   -3.9578   25.4929 C   0  0  0  0  0  0  0  0  0  0  0  0
   10.1405   -4.7631   24.9973 C   0  0  0  0  0  0  0  0  0  0  0  0
    9.3746   -5.5344   26.0692 C   0  0  0  0  0  0  0  0  0  0  0  0
    9.9206   -0.3491   27.3104 N   0  0  0  0  0  0  0  0  0  0  0  0
   11.5735   -0.0818   24.3890 N   0  0  0  0  0  0  0  0  0  0  0  0
   10.2674   -3.4206   25.3450 N   0  0  0  0  0  0  0  0  0  0  0  0
   10.5619   -5.3110   23.9837 O   0  0  0  0  0  0  0  0  0  0  0  0
    5.1040   -3.2214   24.2113 Cl  0  0  0  0  0  0  0  0  0  0  0  0
    5.6722   -4.7700   28.7801 H   0  0  0  0  0  0  0  0  0  0  0  0
   12.6069   -1.8900   21.7132 H   0  0  0  0  0  0  0  0  0  0  0  0
    7.9636   -5.6124   28.3873 H   0  0  0  0  0  0  0  0  0  0  0  0
   11.4857   -3.7018   22.9894 H   0  0  0  0  0  0  0  0  0  0  0  0
    4.4011   -3.7139   26.9460 H   0  0  0  0  0  0  0  0  0  0  0  0
    7.7328   -4.3401   24.2851 H   0  0  0  0  0  0  0  0  0  0  0  0
   12.6202    0.4147   22.6829 H   0  0  0  0  0  0  0  0  0  0  0  0
    9.9626   -5.4970   27.0011 H   0  0  0  0  0  0  0  0  0  0  0  0
    9.3465   -6.5958   25.7725 H   0  0  0  0  0  0  0  0  0  0  0  0
    9.8498   -3.1441   26.2311 H   0  0  0  0  0  0  0  0  0  0  0  0
  1  9  1  0  0  0  0
  1 15  3  0  0  0  0
  2  4  2  0  0  0  0
  2  6  1  0  0  0  0
  2 20  1  0  0  0  0
  3  5  2  0  0  0  0
  3  8  1  0  0  0  0
  3 21  1  0  0  0  0
  4 10  1  0  0  0  0
  4 22  1  0  0  0  0
  5 11  1  0  0  0  0
  5 23  1  0  0  0  0
  6 12  2  0  0  0  0
  6 24  1  0  0  0  0
  7 10  2  0  0  0  0
  7 12  1  0  0  0  0
  7 25  1  0  0  0  0
  8 16  2  0  0  0  0
  8 26  1  0  0  0  0
  9 11  2  0  0  0  0
  9 16  1  0  0  0  0
 10 14  1  0  0  0  0
 11 17  1  0  0  0  0
 12 19  1  0  0  0  0
 13 14  1  0  0  0  0
 13 17  1  0  0  0  0
 13 18  2  0  0  0  0
 14 27  1  0  0  0  0
 14 28  1  0  0  0  0
 17 29  1  0  0  0  0
M  END
>  <Chemgauss4 Score>
-5.19027233123779

>  <Number of Confs>
20

$$$$
