DAN-LON-a5f-2
 OpenBabel03242009303D

 41 43  0  0  1  0  0  0  0  0999 V2000
   11.4177   -0.1111   24.4033 C   0  0  0  0  0  0  0  0  0  0  0  0
    7.9775   -0.9075   22.2352 C   0  0  0  0  0  0  0  0  0  0  0  0
   11.1862   -1.3820   24.9293 C   0  0  0  0  0  0  0  0  0  0  0  0
   11.8422    0.0302   23.0821 C   0  0  0  0  0  0  0  0  0  0  0  0
    8.5513   -2.2095   22.3105 C   0  0  0  0  0  0  0  0  0  0  0  0
   11.8039   -2.3705   22.8130 C   0  0  0  0  0  0  0  0  0  0  0  0
    7.3617   -0.5446   23.4128 C   0  0  0  0  0  0  0  0  0  0  0  0
   11.3794   -2.5117   24.1342 C   0  0  0  0  0  0  0  0  0  0  0  0
   12.0353   -1.0995   22.2870 C   0  0  0  0  0  0  0  0  0  0  0  0
    8.3525   -2.7920   23.5429 C   0  0  0  0  0  0  0  0  0  0  0  0
    5.8605   -4.8407   26.2020 C   0  0  0  0  0  0  0  0  0  0  0  0
    8.2371   -5.1566   26.7245 C   0  0  0  0  0  0  0  0  0  0  0  0
    9.6349   -5.1471   26.1084 C   0  0  0  0  0  0  0  0  0  0  0  0
    7.5740   -5.0516   24.3373 C   0  0  0  0  0  0  0  0  0  0  0  0
    8.8052   -4.1641   24.0273 C   0  0  2  0  0  0  0  0  0  0  0  0
   11.1312   -3.8795   24.7015 C   0  0  0  0  0  0  0  0  0  0  0  0
    4.7682   -5.3345   25.2881 C   0  0  0  0  0  0  0  0  0  0  0  0
    7.1703   -4.9753   25.7431 N   0  0  0  0  0  0  0  0  0  0  0  0
    9.7516   -4.0400   25.1593 N   0  0  0  0  0  0  0  0  0  0  0  0
    5.5645   -4.3447   27.2923 O   0  0  0  0  0  0  0  0  0  0  0  0
    7.4769   -1.7708   24.6025 S   0  0  0  0  0  0  0  0  0  0  0  0
   12.5602   -0.9246   20.6573 Cl  0  0  0  0  0  0  0  0  0  0  0  0
    5.0836   -7.0425   25.0033 Cl  0  0  0  0  0  0  0  0  0  0  0  0
   11.2673    0.7683   25.0228 H   0  0  0  0  0  0  0  0  0  0  0  0
    8.0147   -0.2687   21.3625 H   0  0  0  0  0  0  0  0  0  0  0  0
   10.8557   -1.4827   25.9598 H   0  0  0  0  0  0  0  0  0  0  0  0
   12.0190    1.0270   22.6855 H   0  0  0  0  0  0  0  0  0  0  0  0
    9.0836   -2.6895   21.4990 H   0  0  0  0  0  0  0  0  0  0  0  0
   11.9525   -3.2543   22.1970 H   0  0  0  0  0  0  0  0  0  0  0  0
    6.8495    0.3818   23.6313 H   0  0  0  0  0  0  0  0  0  0  0  0
    8.0893   -6.0965   27.2874 H   0  0  0  0  0  0  0  0  0  0  0  0
    8.1371   -4.3409   27.4662 H   0  0  0  0  0  0  0  0  0  0  0  0
   10.3561   -5.0249   26.9153 H   0  0  0  0  0  0  0  0  0  0  0  0
    9.8209   -6.1054   25.6234 H   0  0  0  0  0  0  0  0  0  0  0  0
    6.7029   -4.7300   23.7449 H   0  0  0  0  0  0  0  0  0  0  0  0
    7.7838   -6.0845   24.0354 H   0  0  0  0  0  0  0  0  0  0  0  0
    9.3504   -4.6278   23.1615 H   0  0  0  0  0  0  0  0  0  0  0  0
   11.3289   -4.6511   23.9495 H   0  0  0  0  0  0  0  0  0  0  0  0
   11.7915   -4.0778   25.5523 H   0  0  0  0  0  0  0  0  0  0  0  0
    4.8168   -4.7863   24.3542 H   0  0  0  0  0  0  0  0  0  0  0  0
    3.8124   -5.2099   25.7838 H   0  0  0  0  0  0  0  0  0  0  0  0
  1  3  2  0  0  0  0
  1  4  1  0  0  0  0
  1 24  1  0  0  0  0
  2  5  1  0  0  0  0
  2  7  2  0  0  0  0
  2 25  1  0  0  0  0
  3  8  1  0  0  0  0
  3 26  1  0  0  0  0
  4  9  2  0  0  0  0
  4 27  1  0  0  0  0
  5 10  2  0  0  0  0
  5 28  1  0  0  0  0
  6  8  2  0  0  0  0
  6  9  1  0  0  0  0
  6 29  1  0  0  0  0
  7 21  1  0  0  0  0
  7 30  1  0  0  0  0
  8 16  1  0  0  0  0
  9 22  1  0  0  0  0
 10 15  1  0  0  0  0
 10 21  1  0  0  0  0
 11 17  1  0  0  0  0
 11 18  1  0  0  0  0
 11 20  2  0  0  0  0
 12 13  1  0  0  0  0
 12 18  1  0  0  0  0
 12 31  1  0  0  0  0
 12 32  1  0  0  0  0
 13 19  1  0  0  0  0
 13 33  1  0  0  0  0
 13 34  1  0  0  0  0
 14 15  1  0  0  0  0
 14 18  1  0  0  0  0
 14 35  1  0  0  0  0
 14 36  1  0  0  0  0
 15 19  1  0  0  0  0
 15 37  1  6  0  0  0
 16 19  1  0  0  0  0
 16 38  1  0  0  0  0
 16 39  1  0  0  0  0
 17 23  1  0  0  0  0
 17 40  1  0  0  0  0
 17 41  1  0  0  0  0
M  END
>  <Chemgauss4 Score>
-5.11088609695435

>  <Number of Confs>
200

$$$$
