CHR-SOS-70e-5
 OpenBabel03242009303D

 48 50  0  0  0  0  0  0  0  0999 V2000
    5.9935    0.4202   19.9373 C   0  0  0  0  0  0  0  0  0  0  0  0
    6.9458   -0.2318   20.7128 C   0  0  0  0  0  0  0  0  0  0  0  0
   10.6636   -2.7798   26.5665 C   0  0  0  0  0  0  0  0  0  0  0  0
    8.7392   -2.5655   25.1216 C   0  0  0  0  0  0  0  0  0  0  0  0
   10.0305   -3.8135   27.2566 C   0  0  0  0  0  0  0  0  0  0  0  0
    8.1060   -3.5993   25.8116 C   0  0  0  0  0  0  0  0  0  0  0  0
    6.2325    0.5349   18.5773 C   0  0  0  0  0  0  0  0  0  0  0  0
    8.2368   -0.5754   18.7452 C   0  0  0  0  0  0  0  0  0  0  0  0
    8.0918   -0.7419   20.1130 C   0  0  0  0  0  0  0  0  0  0  0  0
   10.0179   -2.1557   25.4991 C   0  0  0  0  0  0  0  0  0  0  0  0
    8.7517   -4.2233   26.8791 C   0  0  0  0  0  0  0  0  0  0  0  0
    9.4106   -1.1934   22.2104 C   0  0  0  0  0  0  0  0  0  0  0  0
   13.6438   -2.2769   23.0807 C   0  0  0  0  0  0  0  0  0  0  0  0
   13.4221   -0.8891   22.4761 C   0  0  0  0  0  0  0  0  0  0  0  0
   12.5599   -2.4549   24.1388 C   0  0  0  0  0  0  0  0  0  0  0  0
   12.2078   -0.3043   23.1909 C   0  0  0  0  0  0  0  0  0  0  0  0
   11.4345   -1.5164   23.7063 C   0  0  0  0  0  0  0  0  0  0  0  0
    7.0701   -4.6964   29.0475 C   0  0  0  0  0  0  0  0  0  0  0  0
   10.5296   -2.1297   22.6386 C   0  0  0  0  0  0  0  0  0  0  0  0
    7.3336    0.0522   17.9591 N   0  0  0  0  0  0  0  0  0  0  0  0
    9.0788   -1.4101   20.8760 N   0  0  0  0  0  0  0  0  0  0  0  0
    8.9097   -0.3809   22.9808 O   0  0  0  0  0  0  0  0  0  0  0  0
    6.9825   -6.1215   26.8484 O   0  0  0  0  0  0  0  0  0  0  0  0
    8.9707   -6.3498   28.3784 O   0  0  0  0  0  0  0  0  0  0  0  0
   10.6390   -1.1421   24.8219 O   0  0  0  0  0  0  0  0  0  0  0  0
    7.9586   -5.5168   27.7435 S   0  0  0  0  0  0  0  0  0  0  0  0
    5.0926    0.8258   20.3835 H   0  0  0  0  0  0  0  0  0  0  0  0
    6.7850   -0.3366   21.7825 H   0  0  0  0  0  0  0  0  0  0  0  0
   11.6601   -2.4653   26.8647 H   0  0  0  0  0  0  0  0  0  0  0  0
    8.2312   -2.0832   24.2910 H   0  0  0  0  0  0  0  0  0  0  0  0
   10.5426   -4.2926   28.0866 H   0  0  0  0  0  0  0  0  0  0  0  0
    7.1097   -3.9105   25.5096 H   0  0  0  0  0  0  0  0  0  0  0  0
    5.5208    1.0355   17.9291 H   0  0  0  0  0  0  0  0  0  0  0  0
    9.1096   -0.9520   18.2201 H   0  0  0  0  0  0  0  0  0  0  0  0
   13.5938   -3.0639   22.3215 H   0  0  0  0  0  0  0  0  0  0  0  0
   14.6386   -2.3266   23.5385 H   0  0  0  0  0  0  0  0  0  0  0  0
   14.3066   -0.2647   22.6462 H   0  0  0  0  0  0  0  0  0  0  0  0
   13.2602   -0.9393   21.3947 H   0  0  0  0  0  0  0  0  0  0  0  0
   12.2192   -3.5004   24.1408 H   0  0  0  0  0  0  0  0  0  0  0  0
   12.9479   -2.2204   25.1387 H   0  0  0  0  0  0  0  0  0  0  0  0
   12.5179    0.3765   23.9940 H   0  0  0  0  0  0  0  0  0  0  0  0
   11.6031    0.2683   22.4734 H   0  0  0  0  0  0  0  0  0  0  0  0
    6.5451   -5.4516   29.6346 H   0  0  0  0  0  0  0  0  0  0  0  0
    7.7885   -4.1600   29.6692 H   0  0  0  0  0  0  0  0  0  0  0  0
    6.3605   -4.0013   28.5963 H   0  0  0  0  0  0  0  0  0  0  0  0
   10.0838   -3.0520   23.0265 H   0  0  0  0  0  0  0  0  0  0  0  0
   11.1283   -2.3844   21.7574 H   0  0  0  0  0  0  0  0  0  0  0  0
    9.5987   -2.1305   20.3792 H   0  0  0  0  0  0  0  0  0  0  0  0
  1  2  2  0  0  0  0
  1  7  1  0  0  0  0
  1 27  1  0  0  0  0
  2  9  1  0  0  0  0
  2 28  1  0  0  0  0
  3  5  2  0  0  0  0
  3 10  1  0  0  0  0
  3 29  1  0  0  0  0
  4  6  1  0  0  0  0
  4 10  2  0  0  0  0
  4 30  1  0  0  0  0
  5 11  1  0  0  0  0
  5 31  1  0  0  0  0
  6 11  2  0  0  0  0
  6 32  1  0  0  0  0
  7 20  2  0  0  0  0
  7 33  1  0  0  0  0
  8  9  2  0  0  0  0
  8 20  1  0  0  0  0
  8 34  1  0  0  0  0
  9 21  1  0  0  0  0
 10 25  1  0  0  0  0
 11 26  1  0  0  0  0
 12 19  1  0  0  0  0
 12 21  1  0  0  0  0
 12 22  2  0  0  0  0
 13 14  1  0  0  0  0
 13 15  1  0  0  0  0
 13 35  1  0  0  0  0
 13 36  1  0  0  0  0
 14 16  1  0  0  0  0
 14 37  1  0  0  0  0
 14 38  1  0  0  0  0
 15 17  1  0  0  0  0
 15 39  1  0  0  0  0
 15 40  1  0  0  0  0
 16 17  1  0  0  0  0
 16 41  1  0  0  0  0
 16 42  1  0  0  0  0
 17 19  1  0  0  0  0
 17 25  1  0  0  0  0
 18 26  1  0  0  0  0
 18 43  1  0  0  0  0
 18 44  1  0  0  0  0
 18 45  1  0  0  0  0
 19 46  1  0  0  0  0
 19 47  1  0  0  0  0
 21 48  1  0  0  0  0
 23 26  2  0  0  0  0
 24 26  2  0  0  0  0
M  END
>  <Chemgauss4 Score>
-6.37543869018555

>  <Number of Confs>
200

$$$$
