BAR-COM-21d-4
 OpenBabel03242009303D

 44 46  0  0  0  0  0  0  0  0999 V2000
   11.8438   -2.7691   23.5876 C   0  0  0  0  0  0  0  0  0  0  0  0
    5.3165    2.0344   18.9882 C   0  0  0  0  0  0  0  0  0  0  0  0
   11.5754   -3.3421   24.8307 C   0  0  0  0  0  0  0  0  0  0  0  0
   10.8918   -1.9542   22.9750 C   0  0  0  0  0  0  0  0  0  0  0  0
    5.8297    1.5877   20.2008 C   0  0  0  0  0  0  0  0  0  0  0  0
    9.4027   -2.2856   24.8485 C   0  0  0  0  0  0  0  0  0  0  0  0
    5.8916    1.5521   17.8235 C   0  0  0  0  0  0  0  0  0  0  0  0
    7.3920    0.2631   18.9922 C   0  0  0  0  0  0  0  0  0  0  0  0
   10.3548   -3.1004   25.4611 C   0  0  0  0  0  0  0  0  0  0  0  0
    9.6712   -1.7125   23.6055 C   0  0  0  0  0  0  0  0  0  0  0  0
    6.8873    0.6852   20.2116 C   0  0  0  0  0  0  0  0  0  0  0  0
    8.4900   -0.6910   21.6104 C   0  0  0  0  0  0  0  0  0  0  0  0
    8.0436   -4.9592   24.4763 C   0  0  0  0  0  0  0  0  0  0  0  0
    7.5976   -6.2057   25.1859 C   0  0  0  0  0  0  0  0  0  0  0  0
    8.0603   -5.0106   25.9862 C   0  0  0  0  0  0  0  0  0  0  0  0
   10.0651   -3.7202   26.8048 C   0  0  0  0  0  0  0  0  0  0  0  0
    9.3950   -5.0964   26.6741 C   0  0  0  0  0  0  0  0  0  0  0  0
    7.0228   -4.2159   26.7304 C   0  0  0  0  0  0  0  0  0  0  0  0
    6.9198    0.6749   17.7942 N   0  0  0  0  0  0  0  0  0  0  0  0
    8.7194   -0.8968   22.9927 N   0  0  0  0  0  0  0  0  0  0  0  0
    7.4308    0.2129   21.4296 N   0  0  0  0  0  0  0  0  0  0  0  0
    9.1269   -1.2270   20.7093 O   0  0  0  0  0  0  0  0  0  0  0  0
    5.7777   -4.3083   26.0478 O   0  0  0  0  0  0  0  0  0  0  0  0
   12.7944   -2.9569   23.0969 H   0  0  0  0  0  0  0  0  0  0  0  0
    4.4924    2.7379   18.9559 H   0  0  0  0  0  0  0  0  0  0  0  0
   12.3229   -3.9759   25.2996 H   0  0  0  0  0  0  0  0  0  0  0  0
   11.1117   -1.5129   22.0062 H   0  0  0  0  0  0  0  0  0  0  0  0
    5.3983    1.9491   21.1306 H   0  0  0  0  0  0  0  0  0  0  0  0
    8.4512   -2.0992   25.3418 H   0  0  0  0  0  0  0  0  0  0  0  0
    5.5281    1.8705   16.8521 H   0  0  0  0  0  0  0  0  0  0  0  0
    8.2170   -0.4407   18.9358 H   0  0  0  0  0  0  0  0  0  0  0  0
    8.9875   -4.9933   23.9452 H   0  0  0  0  0  0  0  0  0  0  0  0
    7.2850   -4.3612   23.9854 H   0  0  0  0  0  0  0  0  0  0  0  0
    6.5403   -6.4422   25.1702 H   0  0  0  0  0  0  0  0  0  0  0  0
    8.2428   -7.0744   25.1300 H   0  0  0  0  0  0  0  0  0  0  0  0
   10.9973   -3.8194   27.3760 H   0  0  0  0  0  0  0  0  0  0  0  0
    9.4193   -3.0525   27.3898 H   0  0  0  0  0  0  0  0  0  0  0  0
   10.0609   -5.7764   26.1180 H   0  0  0  0  0  0  0  0  0  0  0  0
    9.2734   -5.5412   27.6753 H   0  0  0  0  0  0  0  0  0  0  0  0
    7.3063   -3.1573   26.7908 H   0  0  0  0  0  0  0  0  0  0  0  0
    6.8878   -4.6010   27.7493 H   0  0  0  0  0  0  0  0  0  0  0  0
    8.1041   -0.3773   23.6277 H   0  0  0  0  0  0  0  0  0  0  0  0
    6.9969    0.5773   22.2740 H   0  0  0  0  0  0  0  0  0  0  0  0
    5.1405   -3.7844   26.5588 H   0  0  0  0  0  0  0  0  0  0  0  0
  1  3  1  0  0  0  0
  1  4  2  0  0  0  0
  1 24  1  0  0  0  0
  2  5  2  0  0  0  0
  2  7  1  0  0  0  0
  2 25  1  0  0  0  0
  3  9  2  0  0  0  0
  3 26  1  0  0  0  0
  4 10  1  0  0  0  0
  4 27  1  0  0  0  0
  5 11  1  0  0  0  0
  5 28  1  0  0  0  0
  6  9  1  0  0  0  0
  6 10  2  0  0  0  0
  6 29  1  0  0  0  0
  7 19  2  0  0  0  0
  7 30  1  0  0  0  0
  8 11  2  0  0  0  0
  8 19  1  0  0  0  0
  8 31  1  0  0  0  0
  9 16  1  0  0  0  0
 10 20  1  0  0  0  0
 11 21  1  0  0  0  0
 12 20  1  0  0  0  0
 12 21  1  0  0  0  0
 12 22  2  0  0  0  0
 13 14  1  0  0  0  0
 13 15  1  0  0  0  0
 13 32  1  0  0  0  0
 13 33  1  0  0  0  0
 14 15  1  0  0  0  0
 14 34  1  0  0  0  0
 14 35  1  0  0  0  0
 15 17  1  0  0  0  0
 15 18  1  0  0  0  0
 16 17  1  0  0  0  0
 16 36  1  0  0  0  0
 16 37  1  0  0  0  0
 17 38  1  0  0  0  0
 17 39  1  0  0  0  0
 18 23  1  0  0  0  0
 18 40  1  0  0  0  0
 18 41  1  0  0  0  0
 20 42  1  0  0  0  0
 21 43  1  0  0  0  0
 23 44  1  0  0  0  0
M  END
>  <Chemgauss4 Score>
-7.26143169403076

>  <Number of Confs>
200

$$$$
