CHR-SOS-70e-11
 OpenBabel03242009303D

 41 43  0  0  0  0  0  0  0  0999 V2000
    8.4427   -4.3810   28.3260 C   0  0  0  0  0  0  0  0  0  0  0  0
    9.2992   -3.9439   27.3217 C   0  0  0  0  0  0  0  0  0  0  0  0
    8.6360   -1.8717   23.5570 C   0  0  0  0  0  0  0  0  0  0  0  0
    8.7715   -3.9649   22.3580 C   0  0  0  0  0  0  0  0  0  0  0  0
    7.4685   -2.3065   24.1841 C   0  0  0  0  0  0  0  0  0  0  0  0
    7.6039   -4.3997   22.9852 C   0  0  0  0  0  0  0  0  0  0  0  0
    7.8456   -5.6221   28.1745 C   0  0  0  0  0  0  0  0  0  0  0  0
    8.8835   -5.9745   26.1555 C   0  0  0  0  0  0  0  0  0  0  0  0
    9.5292   -4.7499   26.2123 C   0  0  0  0  0  0  0  0  0  0  0  0
    9.2876   -2.7009   22.6439 C   0  0  0  0  0  0  0  0  0  0  0  0
    6.9524   -3.5705   23.8983 C   0  0  0  0  0  0  0  0  0  0  0  0
   11.1083   -3.1395   25.0921 C   0  0  0  0  0  0  0  0  0  0  0  0
   11.6043   -0.5302   23.3707 C   0  0  0  0  0  0  0  0  0  0  0  0
   12.5706   -1.0251   22.3306 C   0  0  0  0  0  0  0  0  0  0  0  0
   11.5321   -1.9560   22.8953 C   0  0  0  0  0  0  0  0  0  0  0  0
   11.9348   -3.0675   23.8040 C   0  0  0  0  0  0  0  0  0  0  0  0
    8.0446   -6.4330   27.1113 N   0  0  0  0  0  0  0  0  0  0  0  0
    4.3057   -3.5616   23.5824 N   0  0  0  0  0  0  0  0  0  0  0  0
   10.3953   -4.3322   25.1740 N   0  0  0  0  0  0  0  0  0  0  0  0
   11.1221   -2.2217   25.9057 O   0  0  0  0  0  0  0  0  0  0  0  0
    5.4854   -5.5707   24.6859 O   0  0  0  0  0  0  0  0  0  0  0  0
    5.3398   -3.3878   25.9355 O   0  0  0  0  0  0  0  0  0  0  0  0
   10.4292   -2.2762   22.0312 O   0  0  0  0  0  0  0  0  0  0  0  0
    5.4902   -4.1146   24.6827 S   0  0  0  0  0  0  0  0  0  0  0  0
    8.2487   -3.7694   29.1998 H   0  0  0  0  0  0  0  0  0  0  0  0
    9.7818   -2.9745   27.4136 H   0  0  0  0  0  0  0  0  0  0  0  0
    9.0337   -0.8863   23.7843 H   0  0  0  0  0  0  0  0  0  0  0  0
    9.2745   -4.6152   21.6476 H   0  0  0  0  0  0  0  0  0  0  0  0
    6.9690   -1.6524   24.8937 H   0  0  0  0  0  0  0  0  0  0  0  0
    7.2102   -5.3860   22.7550 H   0  0  0  0  0  0  0  0  0  0  0  0
    7.1686   -6.0081   28.9295 H   0  0  0  0  0  0  0  0  0  0  0  0
    9.0232   -6.6479   25.3150 H   0  0  0  0  0  0  0  0  0  0  0  0
   11.9921   -0.3338   24.3630 H   0  0  0  0  0  0  0  0  0  0  0  0
   10.8295    0.1565   23.0515 H   0  0  0  0  0  0  0  0  0  0  0  0
   12.4431   -0.6696   21.3150 H   0  0  0  0  0  0  0  0  0  0  0  0
   13.6034   -1.1598   22.6286 H   0  0  0  0  0  0  0  0  0  0  0  0
   12.9952   -2.9677   24.1002 H   0  0  0  0  0  0  0  0  0  0  0  0
   11.8369   -4.0447   23.2966 H   0  0  0  0  0  0  0  0  0  0  0  0
    3.8142   -4.2606   23.0120 H   0  0  0  0  0  0  0  0  0  0  0  0
    3.7171   -2.7689   23.8659 H   0  0  0  0  0  0  0  0  0  0  0  0
   10.5002   -4.9898   24.4041 H   0  0  0  0  0  0  0  0  0  0  0  0
  1  2  2  0  0  0  0
  1  7  1  0  0  0  0
  1 25  1  0  0  0  0
  2  9  1  0  0  0  0
  2 26  1  0  0  0  0
  3  5  2  0  0  0  0
  3 10  1  0  0  0  0
  3 27  1  0  0  0  0
  4  6  1  0  0  0  0
  4 10  2  0  0  0  0
  4 28  1  0  0  0  0
  5 11  1  0  0  0  0
  5 29  1  0  0  0  0
  6 11  2  0  0  0  0
  6 30  1  0  0  0  0
  7 17  2  0  0  0  0
  7 31  1  0  0  0  0
  8  9  2  0  0  0  0
  8 17  1  0  0  0  0
  8 32  1  0  0  0  0
  9 19  1  0  0  0  0
 10 23  1  0  0  0  0
 11 24  1  0  0  0  0
 12 16  1  0  0  0  0
 12 19  1  0  0  0  0
 12 20  2  0  0  0  0
 13 14  1  0  0  0  0
 13 15  1  0  0  0  0
 13 33  1  0  0  0  0
 13 34  1  0  0  0  0
 14 15  1  0  0  0  0
 14 35  1  0  0  0  0
 14 36  1  0  0  0  0
 15 16  1  0  0  0  0
 15 23  1  0  0  0  0
 16 37  1  0  0  0  0
 16 38  1  0  0  0  0
 18 24  1  0  0  0  0
 18 39  1  0  0  0  0
 18 40  1  0  0  0  0
 19 41  1  0  0  0  0
 21 24  2  0  0  0  0
 22 24  2  0  0  0  0
M  END
>  <Chemgauss4 Score>
-5.33078813552856

>  <Number of Confs>
200

$$$$
