NIM-UNI-36e-2
 OpenBabel03242009303D

 47 50  0  0  1  0  0  0  0  0999 V2000
   14.2103   -0.3807   22.5665 C   0  0  0  0  0  0  0  0  0  0  0  0
   13.6940   -1.1343   21.5125 C   0  0  0  0  0  0  0  0  0  0  0  0
   13.3873   -0.0165   23.6322 C   0  0  0  0  0  0  0  0  0  0  0  0
    7.9076   -6.9595   28.6333 C   0  0  0  0  0  0  0  0  0  0  0  0
   12.3547   -1.5236   21.5239 C   0  0  0  0  0  0  0  0  0  0  0  0
   12.0479   -0.4057   23.6437 C   0  0  0  0  0  0  0  0  0  0  0  0
    8.3384   -6.3964   27.4372 C   0  0  0  0  0  0  0  0  0  0  0  0
    7.9195   -6.1626   29.7667 C   0  0  0  0  0  0  0  0  0  0  0  0
    8.7355   -4.3598   28.5995 C   0  0  0  0  0  0  0  0  0  0  0  0
   11.5315   -1.1593   22.5896 C   0  0  0  0  0  0  0  0  0  0  0  0
    8.7620   -5.0723   27.4115 C   0  0  0  0  0  0  0  0  0  0  0  0
    9.2787   -5.1006   24.9288 C   0  0  0  0  0  0  0  0  0  0  0  0
    8.8157   -1.1205   27.4053 C   0  0  0  0  0  0  0  0  0  0  0  0
    7.5502   -2.0145   25.4011 C   0  0  0  0  0  0  0  0  0  0  0  0
    8.1187   -1.6978   24.0099 C   0  0  0  0  0  0  0  0  0  0  0  0
   10.1558   -2.9164   24.6500 C   0  0  1  0  0  0  0  0  0  0  0  0
    9.6668   -3.0708   26.1112 C   0  0  2  0  0  0  0  0  0  0  0  0
    7.8371    0.0257   27.4485 C   0  0  0  0  0  0  0  0  0  0  0  0
   10.0897   -1.5778   22.6025 C   0  0  0  0  0  0  0  0  0  0  0  0
    8.3238   -4.8726   29.7807 N   0  0  0  0  0  0  0  0  0  0  0  0
    9.8041   -4.1669   24.0248 N   0  0  0  0  0  0  0  0  0  0  0  0
    9.2103   -4.4661   26.1984 N   0  0  0  0  0  0  0  0  0  0  0  0
    8.6235   -2.0682   26.3977 N   0  0  0  0  0  0  0  0  0  0  0  0
    9.5855   -1.7568   23.9591 N   0  0  0  0  0  0  0  0  0  0  0  0
    8.9821   -6.2468   24.6165 O   0  0  0  0  0  0  0  0  0  0  0  0
    9.7207   -1.1700   28.2421 O   0  0  0  0  0  0  0  0  0  0  0  0
   15.2536   -0.0788   22.5581 H   0  0  0  0  0  0  0  0  0  0  0  0
   14.3350   -1.4189   20.6831 H   0  0  0  0  0  0  0  0  0  0  0  0
   13.7892    0.5693   24.4536 H   0  0  0  0  0  0  0  0  0  0  0  0
    7.5731   -7.9897   28.6769 H   0  0  0  0  0  0  0  0  0  0  0  0
   11.9610   -2.1105   20.6982 H   0  0  0  0  0  0  0  0  0  0  0  0
   11.4140   -0.1173   24.4781 H   0  0  0  0  0  0  0  0  0  0  0  0
    8.3400   -6.9978   26.5320 H   0  0  0  0  0  0  0  0  0  0  0  0
    7.5939   -6.5550   30.7244 H   0  0  0  0  0  0  0  0  0  0  0  0
    9.0536   -3.3224   28.6428 H   0  0  0  0  0  0  0  0  0  0  0  0
    6.7853   -1.2798   25.6602 H   0  0  0  0  0  0  0  0  0  0  0  0
    7.0564   -2.9931   25.3960 H   0  0  0  0  0  0  0  0  0  0  0  0
    7.6704   -2.3858   23.2816 H   0  0  0  0  0  0  0  0  0  0  0  0
    7.8034   -0.6851   23.7300 H   0  0  0  0  0  0  0  0  0  0  0  0
   11.2508   -2.8516   24.6469 H   0  0  0  0  0  0  0  0  0  0  0  0
   10.5080   -2.9510   26.8040 H   0  0  0  0  0  0  0  0  0  0  0  0
    7.0000   -0.2455   28.0834 H   0  0  0  0  0  0  0  0  0  0  0  0
    7.4870    0.2328   26.4421 H   0  0  0  0  0  0  0  0  0  0  0  0
    8.3354    0.9037   27.8470 H   0  0  0  0  0  0  0  0  0  0  0  0
    9.4652   -0.8265   22.1069 H   0  0  0  0  0  0  0  0  0  0  0  0
    9.9498   -2.5222   22.0660 H   0  0  0  0  0  0  0  0  0  0  0  0
    9.9799   -4.3827   23.0488 H   0  0  0  0  0  0  0  0  0  0  0  0
  1  2  1  0  0  0  0
  1  3  2  0  0  0  0
  1 27  1  0  0  0  0
  2  5  2  0  0  0  0
  2 28  1  0  0  0  0
  3  6  1  0  0  0  0
  3 29  1  0  0  0  0
  4  7  2  0  0  0  0
  4  8  1  0  0  0  0
  4 30  1  0  0  0  0
  5 10  1  0  0  0  0
  5 31  1  0  0  0  0
  6 10  2  0  0  0  0
  6 32  1  0  0  0  0
  7 11  1  0  0  0  0
  7 33  1  0  0  0  0
  8 20  2  0  0  0  0
  8 34  1  0  0  0  0
  9 11  2  0  0  0  0
  9 20  1  0  0  0  0
  9 35  1  0  0  0  0
 10 19  1  0  0  0  0
 11 22  1  0  0  0  0
 12 21  1  0  0  0  0
 12 22  1  0  0  0  0
 12 25  2  0  0  0  0
 13 18  1  0  0  0  0
 13 23  1  0  0  0  0
 13 26  2  0  0  0  0
 14 15  1  0  0  0  0
 14 23  1  0  0  0  0
 14 36  1  0  0  0  0
 14 37  1  0  0  0  0
 15 24  1  0  0  0  0
 15 38  1  0  0  0  0
 15 39  1  0  0  0  0
 16 17  1  0  0  0  0
 16 21  1  0  0  0  0
 16 24  1  0  0  0  0
 16 40  1  1  0  0  0
 17 22  1  0  0  0  0
 17 23  1  0  0  0  0
 17 41  1  1  0  0  0
 18 42  1  0  0  0  0
 18 43  1  0  0  0  0
 18 44  1  0  0  0  0
 19 24  1  0  0  0  0
 19 45  1  0  0  0  0
 19 46  1  0  0  0  0
 21 47  1  0  0  0  0
M  END
>  <Chemgauss4 Score>
-4.52799987792969

>  <Number of Confs>
36

$$$$
