NIM-UNI-36e-2
 OpenBabel03242009303D

 47 50  0  0  1  0  0  0  0  0999 V2000
   13.9193   -0.3745   21.9718 C   0  0  0  0  0  0  0  0  0  0  0  0
   13.5581   -1.4524   21.1637 C   0  0  0  0  0  0  0  0  0  0  0  0
   13.0921    0.0156   23.0251 C   0  0  0  0  0  0  0  0  0  0  0  0
    7.3718   -6.9633   28.8882 C   0  0  0  0  0  0  0  0  0  0  0  0
   12.3696   -2.1403   21.4087 C   0  0  0  0  0  0  0  0  0  0  0  0
   11.9037   -0.6723   23.2701 C   0  0  0  0  0  0  0  0  0  0  0  0
    7.6067   -6.4447   27.6196 C   0  0  0  0  0  0  0  0  0  0  0  0
    7.3679   -6.0831   29.9582 C   0  0  0  0  0  0  0  0  0  0  0  0
    7.8029   -4.2850   28.5960 C   0  0  0  0  0  0  0  0  0  0  0  0
   11.5424   -1.7503   22.4619 C   0  0  0  0  0  0  0  0  0  0  0  0
    7.8274   -5.0810   27.4621 C   0  0  0  0  0  0  0  0  0  0  0  0
    8.1168   -5.2467   24.9529 C   0  0  0  0  0  0  0  0  0  0  0  0
    9.1336   -1.1778   27.3568 C   0  0  0  0  0  0  0  0  0  0  0  0
   10.6194   -2.9429   26.4804 C   0  0  0  0  0  0  0  0  0  0  0  0
   10.9325   -3.0880   24.9818 C   0  0  0  0  0  0  0  0  0  0  0  0
    8.5462   -2.9776   24.4096 C   0  0  2  0  0  0  0  0  0  0  0  0
    8.2175   -3.0752   25.9209 C   0  0  1  0  0  0  0  0  0  0  0  0
   10.1602   -0.8590   28.4161 C   0  0  0  0  0  0  0  0  0  0  0  0
   10.2629   -2.4901   22.7261 C   0  0  0  0  0  0  0  0  0  0  0  0
    7.5782   -4.7525   29.8444 N   0  0  0  0  0  0  0  0  0  0  0  0
    8.3615   -4.3243   23.9275 N   0  0  0  0  0  0  0  0  0  0  0  0
    8.0716   -4.5187   26.1720 N   0  0  0  0  0  0  0  0  0  0  0  0
    9.2779   -2.3947   26.6851 N   0  0  0  0  0  0  0  0  0  0  0  0
    9.9014   -2.4680   24.1388 N   0  0  0  0  0  0  0  0  0  0  0  0
    7.9518   -6.4442   24.7577 O   0  0  0  0  0  0  0  0  0  0  0  0
    8.2175   -0.3780   27.1478 O   0  0  0  0  0  0  0  0  0  0  0  0
   14.8454    0.1602   21.7817 H   0  0  0  0  0  0  0  0  0  0  0  0
   14.2025   -1.7569   20.3442 H   0  0  0  0  0  0  0  0  0  0  0  0
   13.3736    0.8541   23.6552 H   0  0  0  0  0  0  0  0  0  0  0  0
    7.1973   -8.0232   29.0345 H   0  0  0  0  0  0  0  0  0  0  0  0
   12.0961   -2.9789   20.7737 H   0  0  0  0  0  0  0  0  0  0  0  0
   11.2653   -0.3613   24.0929 H   0  0  0  0  0  0  0  0  0  0  0  0
    7.6155   -7.1116   26.7615 H   0  0  0  0  0  0  0  0  0  0  0  0
    7.1904   -6.4380   30.9680 H   0  0  0  0  0  0  0  0  0  0  0  0
    7.9681   -3.2132   28.5369 H   0  0  0  0  0  0  0  0  0  0  0  0
   10.6533   -3.9241   26.9709 H   0  0  0  0  0  0  0  0  0  0  0  0
   11.3912   -2.3320   26.9562 H   0  0  0  0  0  0  0  0  0  0  0  0
   11.8874   -2.5967   24.7797 H   0  0  0  0  0  0  0  0  0  0  0  0
   11.0504   -4.1488   24.7475 H   0  0  0  0  0  0  0  0  0  0  0  0
    7.8039   -2.3491   23.9188 H   0  0  0  0  0  0  0  0  0  0  0  0
    7.2455   -2.6009   26.1173 H   0  0  0  0  0  0  0  0  0  0  0  0
   10.9874   -0.3250   27.9600 H   0  0  0  0  0  0  0  0  0  0  0  0
   10.5153   -1.7848   28.8577 H   0  0  0  0  0  0  0  0  0  0  0  0
    9.7002   -0.2443   29.1834 H   0  0  0  0  0  0  0  0  0  0  0  0
    9.4367   -2.0470   22.1595 H   0  0  0  0  0  0  0  0  0  0  0  0
   10.3438   -3.5377   22.4175 H   0  0  0  0  0  0  0  0  0  0  0  0
    8.4045   -4.5774   22.9444 H   0  0  0  0  0  0  0  0  0  0  0  0
  1  2  1  0  0  0  0
  1  3  2  0  0  0  0
  1 27  1  0  0  0  0
  2  5  2  0  0  0  0
  2 28  1  0  0  0  0
  3  6  1  0  0  0  0
  3 29  1  0  0  0  0
  4  7  2  0  0  0  0
  4  8  1  0  0  0  0
  4 30  1  0  0  0  0
  5 10  1  0  0  0  0
  5 31  1  0  0  0  0
  6 10  2  0  0  0  0
  6 32  1  0  0  0  0
  7 11  1  0  0  0  0
  7 33  1  0  0  0  0
  8 20  2  0  0  0  0
  8 34  1  0  0  0  0
  9 11  2  0  0  0  0
  9 20  1  0  0  0  0
  9 35  1  0  0  0  0
 10 19  1  0  0  0  0
 11 22  1  0  0  0  0
 12 21  1  0  0  0  0
 12 22  1  0  0  0  0
 12 25  2  0  0  0  0
 13 18  1  0  0  0  0
 13 23  1  0  0  0  0
 13 26  2  0  0  0  0
 14 15  1  0  0  0  0
 14 23  1  0  0  0  0
 14 36  1  0  0  0  0
 14 37  1  0  0  0  0
 15 24  1  0  0  0  0
 15 38  1  0  0  0  0
 15 39  1  0  0  0  0
 16 17  1  0  0  0  0
 16 21  1  0  0  0  0
 16 24  1  0  0  0  0
 16 40  1  6  0  0  0
 17 22  1  0  0  0  0
 17 23  1  0  0  0  0
 17 41  1  1  0  0  0
 18 42  1  0  0  0  0
 18 43  1  0  0  0  0
 18 44  1  0  0  0  0
 19 24  1  0  0  0  0
 19 45  1  0  0  0  0
 19 46  1  0  0  0  0
 21 47  1  0  0  0  0
M  END
>  <Chemgauss4 Score>
-4.86946201324463

>  <Number of Confs>
32

$$$$
