SAM-UNK-83e-2
 OpenBabel03242009303D

 41 42  0  0  0  0  0  0  0  0999 V2000
   10.3877   -0.5655   25.7701 C   0  0  0  0  0  0  0  0  0  0  0  0
   10.1253   -2.7806   26.7302 C   0  0  0  0  0  0  0  0  0  0  0  0
   11.8571   -1.6833   22.6154 C   0  0  0  0  0  0  0  0  0  0  0  0
   10.9401   -1.1431   24.6097 C   0  0  0  0  0  0  0  0  0  0  0  0
   11.4415   -0.6209   23.3846 C   0  0  0  0  0  0  0  0  0  0  0  0
   10.6704   -3.3761   25.5891 C   0  0  0  0  0  0  0  0  0  0  0  0
   11.0684   -2.5323   24.5461 C   0  0  0  0  0  0  0  0  0  0  0  0
    9.9852   -1.3971   26.8214 C   0  0  0  0  0  0  0  0  0  0  0  0
   11.5197    0.7314   22.9850 C   0  0  0  0  0  0  0  0  0  0  0  0
   10.4670    1.5752   22.8990 C   0  0  0  0  0  0  0  0  0  0  0  0
    8.1402    2.2369   23.0543 C   0  0  0  0  0  0  0  0  0  0  0  0
    6.7998    1.6757   23.4513 C   0  0  0  0  0  0  0  0  0  0  0  0
    7.4773   -3.5732   22.4047 C   0  0  0  0  0  0  0  0  0  0  0  0
   10.8055   -4.8609   25.5253 C   0  0  0  0  0  0  0  0  0  0  0  0
    9.4815   -5.5850   25.2540 C   0  0  0  0  0  0  0  0  0  0  0  0
   11.6278   -2.8319   23.3243 N   0  0  0  0  0  0  0  0  0  0  0  0
    9.1622    1.3045   23.1703 N   0  0  0  0  0  0  0  0  0  0  0  0
    8.8996   -5.2069   23.9940 N   0  0  0  0  0  0  0  0  0  0  0  0
    8.2669    3.4068   22.6998 O   0  0  0  0  0  0  0  0  0  0  0  0
    7.2604   -3.4770   25.0113 O   0  0  0  0  0  0  0  0  0  0  0  0
    6.3234   -5.4668   23.7788 O   0  0  0  0  0  0  0  0  0  0  0  0
    9.4590   -0.8553   27.9284 F   0  0  0  0  0  0  0  0  0  0  0  0
    7.3485   -4.4542   23.9440 S   0  0  0  0  0  0  0  0  0  0  0  0
   10.2715    0.5109   25.8586 H   0  0  0  0  0  0  0  0  0  0  0  0
    9.8032   -3.3993   27.5647 H   0  0  0  0  0  0  0  0  0  0  0  0
   12.2953   -1.7310   21.6277 H   0  0  0  0  0  0  0  0  0  0  0  0
   12.5060    1.1547   22.7523 H   0  0  0  0  0  0  0  0  0  0  0  0
   10.5812    2.6025   22.5733 H   0  0  0  0  0  0  0  0  0  0  0  0
    6.6383    1.8393   24.5205 H   0  0  0  0  0  0  0  0  0  0  0  0
    6.7826    0.6029   23.2411 H   0  0  0  0  0  0  0  0  0  0  0  0
    5.9905    2.1651   22.9019 H   0  0  0  0  0  0  0  0  0  0  0  0
    6.5429   -3.0354   22.2365 H   0  0  0  0  0  0  0  0  0  0  0  0
    8.3127   -2.8752   22.4764 H   0  0  0  0  0  0  0  0  0  0  0  0
    7.6509   -4.2971   21.6072 H   0  0  0  0  0  0  0  0  0  0  0  0
   11.2184   -5.2308   26.4786 H   0  0  0  0  0  0  0  0  0  0  0  0
   11.5441   -5.1504   24.7585 H   0  0  0  0  0  0  0  0  0  0  0  0
    9.6374   -6.6678   25.2174 H   0  0  0  0  0  0  0  0  0  0  0  0
    8.7443   -5.3725   26.0352 H   0  0  0  0  0  0  0  0  0  0  0  0
   11.8390   -3.7646   22.9976 H   0  0  0  0  0  0  0  0  0  0  0  0
    8.9209    0.3637   23.4760 H   0  0  0  0  0  0  0  0  0  0  0  0
    9.0979   -5.8461   23.1937 H   0  0  0  0  0  0  0  0  0  0  0  0
  1  4  1  0  0  0  0
  1  8  2  0  0  0  0
  1 24  1  0  0  0  0
  2  6  2  0  0  0  0
  2  8  1  0  0  0  0
  2 25  1  0  0  0  0
  3  5  2  0  0  0  0
  3 16  1  0  0  0  0
  3 26  1  0  0  0  0
  4  5  1  0  0  0  0
  4  7  2  0  0  0  0
  5  9  1  0  0  0  0
  6  7  1  0  0  0  0
  6 14  1  0  0  0  0
  7 16  1  0  0  0  0
  8 22  1  0  0  0  0
  9 10  2  3  0  0  0
  9 27  1  0  0  0  0
 10 17  1  0  0  0  0
 10 28  1  0  0  0  0
 11 12  1  0  0  0  0
 11 17  1  0  0  0  0
 11 19  2  0  0  0  0
 12 29  1  0  0  0  0
 12 30  1  0  0  0  0
 12 31  1  0  0  0  0
 13 23  1  0  0  0  0
 13 32  1  0  0  0  0
 13 33  1  0  0  0  0
 13 34  1  0  0  0  0
 14 15  1  0  0  0  0
 14 35  1  0  0  0  0
 14 36  1  0  0  0  0
 15 18  1  0  0  0  0
 15 37  1  0  0  0  0
 15 38  1  0  0  0  0
 16 39  1  0  0  0  0
 17 40  1  0  0  0  0
 18 23  1  0  0  0  0
 18 41  1  0  0  0  0
 20 23  2  0  0  0  0
 21 23  2  0  0  0  0
M  END
>  <Chemgauss4 Score>
-5.30527400970459

>  <Number of Confs>
200

$$$$
