ADA-UNI-f8e-8
 OpenBabel03242009303D

 42 43  0  0  1  0  0  0  0  0999 V2000
   10.7144    0.3444   23.5148 C   0  0  0  0  0  0  0  0  0  0  0  0
    6.2454   -6.4235   21.3202 C   0  0  0  0  0  0  0  0  0  0  0  0
   10.0283   -0.6797   24.1676 C   0  0  0  0  0  0  0  0  0  0  0  0
    7.1760   -5.6939   22.0515 C   0  0  0  0  0  0  0  0  0  0  0  0
   11.8133    0.0448   22.7096 C   0  0  0  0  0  0  0  0  0  0  0  0
   11.5403   -2.3029   23.2103 C   0  0  0  0  0  0  0  0  0  0  0  0
    4.9068   -6.2812   21.6485 C   0  0  0  0  0  0  0  0  0  0  0  0
    5.3848   -4.7838   23.3241 C   0  0  0  0  0  0  0  0  0  0  0  0
   10.4413   -2.0033   24.0154 C   0  0  0  0  0  0  0  0  0  0  0  0
    6.7457   -4.8561   23.0744 C   0  0  0  0  0  0  0  0  0  0  0  0
   12.2263   -1.2788   22.5574 C   0  0  0  0  0  0  0  0  0  0  0  0
    9.0552   -4.0699   23.7037 C   0  0  0  0  0  0  0  0  0  0  0  0
    7.9673   -6.5676   28.8289 C   0  0  0  0  0  0  0  0  0  0  0  0
   10.5912   -3.9086   25.7087 C   0  0  0  0  0  0  0  0  0  0  0  0
    9.8883   -5.0679   26.4144 C   0  0  0  0  0  0  0  0  0  0  0  0
    9.6941   -3.1183   24.7280 C   0  0  1  0  0  0  0  0  0  0  0  0
    4.4509   -5.4773   22.6352 N   0  0  0  0  0  0  0  0  0  0  0  0
    7.6689   -4.1013   23.8362 N   0  0  0  0  0  0  0  0  0  0  0  0
    8.7554   -4.5705   27.2238 N   0  0  0  0  0  0  0  0  0  0  0  0
    9.7363   -4.7056   22.9040 O   0  0  0  0  0  0  0  0  0  0  0  0
    7.2312   -6.4551   26.3198 O   0  0  0  0  0  0  0  0  0  0  0  0
    6.3033   -4.7642   27.9435 O   0  0  0  0  0  0  0  0  0  0  0  0
    7.4021   -5.5797   27.4628 S   0  0  0  0  0  0  0  0  0  0  0  0
   13.5829   -1.6476   21.5648 Cl  0  0  0  0  0  0  0  0  0  0  0  0
   10.3926    1.3750   23.6336 H   0  0  0  0  0  0  0  0  0  0  0  0
    6.5581   -7.0828   20.5185 H   0  0  0  0  0  0  0  0  0  0  0  0
    9.1732   -0.4370   24.7931 H   0  0  0  0  0  0  0  0  0  0  0  0
    8.2331   -5.7856   21.8163 H   0  0  0  0  0  0  0  0  0  0  0  0
   12.3387    0.8532   22.2070 H   0  0  0  0  0  0  0  0  0  0  0  0
   11.8580   -3.3365   23.0945 H   0  0  0  0  0  0  0  0  0  0  0  0
    4.1417   -6.8293   21.1086 H   0  0  0  0  0  0  0  0  0  0  0  0
    4.9880   -4.1473   24.1094 H   0  0  0  0  0  0  0  0  0  0  0  0
    7.1790   -7.2747   29.0920 H   0  0  0  0  0  0  0  0  0  0  0  0
    8.8694   -7.0981   28.5203 H   0  0  0  0  0  0  0  0  0  0  0  0
    8.1818   -5.9042   29.6681 H   0  0  0  0  0  0  0  0  0  0  0  0
   10.9796   -3.2162   26.4681 H   0  0  0  0  0  0  0  0  0  0  0  0
   11.4701   -4.3057   25.1850 H   0  0  0  0  0  0  0  0  0  0  0  0
   10.5906   -5.5718   27.0870 H   0  0  0  0  0  0  0  0  0  0  0  0
    9.5191   -5.8114   25.7020 H   0  0  0  0  0  0  0  0  0  0  0  0
    8.8673   -2.6866   25.3091 H   0  0  0  0  0  0  0  0  0  0  0  0
    7.2738   -3.5126   24.5663 H   0  0  0  0  0  0  0  0  0  0  0  0
    9.0399   -3.9740   28.0092 H   0  0  0  0  0  0  0  0  0  0  0  0
  1  3  2  0  0  0  0
  1  5  1  0  0  0  0
  1 25  1  0  0  0  0
  2  4  2  0  0  0  0
  2  7  1  0  0  0  0
  2 26  1  0  0  0  0
  3  9  1  0  0  0  0
  3 27  1  0  0  0  0
  4 10  1  0  0  0  0
  4 28  1  0  0  0  0
  5 11  2  0  0  0  0
  5 29  1  0  0  0  0
  6  9  2  0  0  0  0
  6 11  1  0  0  0  0
  6 30  1  0  0  0  0
  7 17  2  0  0  0  0
  7 31  1  0  0  0  0
  8 10  2  0  0  0  0
  8 17  1  0  0  0  0
  8 32  1  0  0  0  0
  9 16  1  0  0  0  0
 10 18  1  0  0  0  0
 11 24  1  0  0  0  0
 12 16  1  0  0  0  0
 12 18  1  0  0  0  0
 12 20  2  0  0  0  0
 13 23  1  0  0  0  0
 13 33  1  0  0  0  0
 13 34  1  0  0  0  0
 13 35  1  0  0  0  0
 14 15  1  0  0  0  0
 14 16  1  0  0  0  0
 14 36  1  0  0  0  0
 14 37  1  0  0  0  0
 15 19  1  0  0  0  0
 15 38  1  0  0  0  0
 15 39  1  0  0  0  0
 16 40  1  1  0  0  0
 18 41  1  0  0  0  0
 19 23  1  0  0  0  0
 19 42  1  0  0  0  0
 21 23  2  0  0  0  0
 22 23  2  0  0  0  0
M  END
>  <Chemgauss4 Score>
-5.06557846069336

>  <Number of Confs>
200

$$$$
