DAV-AUT-7eb-1
 OpenBabel03242009303D

 40 42  0  0  1  0  0  0  0  0999 V2000
    8.5996   -2.7151   23.1216 C   0  0  0  0  0  0  0  0  0  0  0  0
    7.3719   -3.3806   23.1127 C   0  0  0  0  0  0  0  0  0  0  0  0
    9.4101   -4.0857   24.9788 C   0  0  0  0  0  0  0  0  0  0  0  0
    8.1924   -4.7342   24.9585 C   0  0  0  0  0  0  0  0  0  0  0  0
    9.6078   -3.0630   24.0450 C   0  0  0  0  0  0  0  0  0  0  0  0
    7.2023   -4.3781   24.0461 C   0  0  0  0  0  0  0  0  0  0  0  0
    7.7105   -5.8404   25.8130 C   0  0  0  0  0  0  0  0  0  0  0  0
   11.0177    0.7126   23.1380 C   0  0  0  0  0  0  0  0  0  0  0  0
   12.3831    0.1566   22.7629 C   0  0  0  0  0  0  0  0  0  0  0  0
   12.4353   -1.3303   22.4187 C   0  0  0  0  0  0  0  0  0  0  0  0
   10.9284   -2.3164   24.0214 C   0  0  2  0  0  0  0  0  0  0  0  0
   10.9818   -1.0544   24.9268 C   0  0  2  0  0  0  0  0  0  0  0  0
   10.4792   -1.2996   26.3539 C   0  0  0  0  0  0  0  0  0  0  0  0
    9.1100    0.6454   24.7012 C   0  0  0  0  0  0  0  0  0  0  0  0
    4.5569   -4.3033   24.9065 C   0  0  0  0  0  0  0  0  0  0  0  0
    6.3825   -6.2278   25.4540 N   0  0  0  0  0  0  0  0  0  0  0  0
   10.3930    0.1195   24.2441 N   0  0  0  0  0  0  0  0  0  0  0  0
    8.4043   -6.3207   26.6965 O   0  0  0  0  0  0  0  0  0  0  0  0
   10.5513    1.6582   22.4985 O   0  0  0  0  0  0  0  0  0  0  0  0
    5.3905   -5.8753   22.9640 O   0  0  0  0  0  0  0  0  0  0  0  0
   11.2150   -2.0177   22.6470 O   0  0  0  0  0  0  0  0  0  0  0  0
    5.7957   -5.3964   24.2691 S   0  0  2  0  0  0  0  0  0  0  0  0
    8.7749   -1.9175   22.4031 H   0  0  0  0  0  0  0  0  0  0  0  0
    6.5970   -3.1166   22.4034 H   0  0  0  0  0  0  0  0  0  0  0  0
   10.1841   -4.3573   25.6882 H   0  0  0  0  0  0  0  0  0  0  0  0
   12.8199    0.7791   21.9631 H   0  0  0  0  0  0  0  0  0  0  0  0
   13.0363    0.3204   23.6426 H   0  0  0  0  0  0  0  0  0  0  0  0
   12.6458   -1.4266   21.3385 H   0  0  0  0  0  0  0  0  0  0  0  0
   13.2710   -1.8429   22.9349 H   0  0  0  0  0  0  0  0  0  0  0  0
   11.6887   -3.0647   24.3792 H   0  0  0  0  0  0  0  0  0  0  0  0
   12.0611   -0.8252   25.0266 H   0  0  0  0  0  0  0  0  0  0  0  0
    9.4176   -1.5321   26.3308 H   0  0  0  0  0  0  0  0  0  0  0  0
   10.6403   -0.4081   26.9544 H   0  0  0  0  0  0  0  0  0  0  0  0
   11.0218   -2.1332   26.7924 H   0  0  0  0  0  0  0  0  0  0  0  0
    8.2929    0.1204   24.1846 H   0  0  0  0  0  0  0  0  0  0  0  0
    9.0164    0.4913   25.7864 H   0  0  0  0  0  0  0  0  0  0  0  0
    9.0539    1.7209   24.4774 H   0  0  0  0  0  0  0  0  0  0  0  0
    3.6432   -4.8767   25.0709 H   0  0  0  0  0  0  0  0  0  0  0  0
    4.9189   -3.8831   25.8461 H   0  0  0  0  0  0  0  0  0  0  0  0
    4.3857   -3.5127   24.1745 H   0  0  0  0  0  0  0  0  0  0  0  0
  1  2  2  0  0  0  0
  1  5  1  0  0  0  0
  1 23  1  0  0  0  0
  2  6  1  0  0  0  0
  2 24  1  0  0  0  0
  3  4  1  0  0  0  0
  3  5  2  0  0  0  0
  3 25  1  0  0  0  0
  4  6  2  0  0  0  0
  4  7  1  0  0  0  0
  5 11  1  0  0  0  0
  6 22  1  0  0  0  0
  7 16  1  0  0  0  0
  7 18  2  0  0  0  0
  8  9  1  0  0  0  0
  8 17  1  0  0  0  0
  8 19  2  0  0  0  0
  9 10  1  0  0  0  0
  9 26  1  0  0  0  0
  9 27  1  0  0  0  0
 10 21  1  0  0  0  0
 10 28  1  0  0  0  0
 10 29  1  0  0  0  0
 11 12  1  0  0  0  0
 11 21  1  0  0  0  0
 11 30  1  1  0  0  0
 12 13  1  0  0  0  0
 12 17  1  0  0  0  0
 12 31  1  1  0  0  0
 13 32  1  0  0  0  0
 13 33  1  0  0  0  0
 13 34  1  0  0  0  0
 14 17  1  0  0  0  0
 14 35  1  0  0  0  0
 14 36  1  0  0  0  0
 14 37  1  0  0  0  0
 15 22  1  0  0  0  0
 15 38  1  0  0  0  0
 15 39  1  0  0  0  0
 15 40  1  0  0  0  0
 16 22  2  0  0  0  0
 22 20  2  6  0  0  0
M  END
>  <Chemgauss4 Score>
-5.23469018936157

>  <Number of Confs>
6

$$$$
