CHR-SOS-b30-5
 OpenBabel03242009303D

 44 46  0  0  0  0  0  0  0  0999 V2000
    7.7023   -2.7316   23.3803 C   0  0  0  0  0  0  0  0  0  0  0  0
    8.8146   -2.2957   23.5046 C   0  0  0  0  0  0  0  0  0  0  0  0
    7.0126   -6.0126   27.7716 C   0  0  0  0  0  0  0  0  0  0  0  0
    7.7801   -5.5449   26.7107 C   0  0  0  0  0  0  0  0  0  0  0  0
    5.5422   -3.3962   24.3266 C   0  0  0  0  0  0  0  0  0  0  0  0
    7.1547   -5.3875   28.9999 C   0  0  0  0  0  0  0  0  0  0  0  0
    4.2760   -3.9014   24.1099 C   0  0  0  0  0  0  0  0  0  0  0  0
    5.8898   -3.6165   21.9944 C   0  0  0  0  0  0  0  0  0  0  0  0
    8.7224   -3.9248   28.1747 C   0  0  0  0  0  0  0  0  0  0  0  0
    6.3766   -3.2487   23.2326 C   0  0  0  0  0  0  0  0  0  0  0  0
    8.6539   -4.4815   26.9078 C   0  0  0  0  0  0  0  0  0  0  0  0
   10.3614   -2.9340   25.8918 C   0  0  0  0  0  0  0  0  0  0  0  0
   10.2465    0.8162   22.1340 C   0  0  0  0  0  0  0  0  0  0  0  0
   10.2578   -0.5241   21.4078 C   0  0  0  0  0  0  0  0  0  0  0  0
    9.5374    0.7203   23.4802 C   0  0  0  0  0  0  0  0  0  0  0  0
   10.8608   -1.6317   22.2747 C   0  0  0  0  0  0  0  0  0  0  0  0
   10.1365   -0.3812   24.3576 C   0  0  0  0  0  0  0  0  0  0  0  0
   10.1865   -1.7569   23.6581 C   0  0  0  0  0  0  0  0  0  0  0  0
   10.9882   -2.7406   24.5275 C   0  0  0  0  0  0  0  0  0  0  0  0
    7.9928   -4.3519   29.2297 N   0  0  0  0  0  0  0  0  0  0  0  0
    3.8259   -4.2531   22.8868 N   0  0  0  0  0  0  0  0  0  0  0  0
    4.6462   -4.1085   21.8117 N   0  0  0  0  0  0  0  0  0  0  0  0
    9.4482   -3.9837   25.8475 N   0  0  0  0  0  0  0  0  0  0  0  0
   10.6526   -2.2394   26.8599 O   0  0  0  0  0  0  0  0  0  0  0  0
    6.3249   -6.8403   27.6409 H   0  0  0  0  0  0  0  0  0  0  0  0
    7.6896   -6.0160   25.7355 H   0  0  0  0  0  0  0  0  0  0  0  0
    5.8595   -3.1273   25.3290 H   0  0  0  0  0  0  0  0  0  0  0  0
    6.5791   -5.7154   29.8593 H   0  0  0  0  0  0  0  0  0  0  0  0
    3.5754   -4.0406   24.9249 H   0  0  0  0  0  0  0  0  0  0  0  0
    6.4842   -3.5303   21.0908 H   0  0  0  0  0  0  0  0  0  0  0  0
    9.3855   -3.0923   28.3905 H   0  0  0  0  0  0  0  0  0  0  0  0
   11.2781    1.1563   22.2884 H   0  0  0  0  0  0  0  0  0  0  0  0
    9.7529    1.5697   21.5101 H   0  0  0  0  0  0  0  0  0  0  0  0
    9.2353   -0.7930   21.1160 H   0  0  0  0  0  0  0  0  0  0  0  0
   10.8347   -0.4318   20.4803 H   0  0  0  0  0  0  0  0  0  0  0  0
    9.6110    1.6821   24.0009 H   0  0  0  0  0  0  0  0  0  0  0  0
    8.4690    0.5308   23.3204 H   0  0  0  0  0  0  0  0  0  0  0  0
   10.8009   -2.5825   21.7287 H   0  0  0  0  0  0  0  0  0  0  0  0
   11.9297   -1.4171   22.4085 H   0  0  0  0  0  0  0  0  0  0  0  0
   11.1543   -0.0783   24.6387 H   0  0  0  0  0  0  0  0  0  0  0  0
    9.5620   -0.4435   25.2912 H   0  0  0  0  0  0  0  0  0  0  0  0
   11.9992   -2.3521   24.6458 H   0  0  0  0  0  0  0  0  0  0  0  0
   11.0345   -3.6991   24.0115 H   0  0  0  0  0  0  0  0  0  0  0  0
    9.3281   -4.4575   24.9546 H   0  0  0  0  0  0  0  0  0  0  0  0
  1  2  3  0  0  0  0
  1 10  1  0  0  0  0
  2 18  1  0  0  0  0
  3  4  2  0  0  0  0
  3  6  1  0  0  0  0
  3 25  1  0  0  0  0
  4 11  1  0  0  0  0
  4 26  1  0  0  0  0
  5  7  2  0  0  0  0
  5 10  1  0  0  0  0
  5 27  1  0  0  0  0
  6 20  2  0  0  0  0
  6 28  1  0  0  0  0
  7 21  1  0  0  0  0
  7 29  1  0  0  0  0
  8 10  2  0  0  0  0
  8 22  1  0  0  0  0
  8 30  1  0  0  0  0
  9 11  2  0  0  0  0
  9 20  1  0  0  0  0
  9 31  1  0  0  0  0
 11 23  1  0  0  0  0
 12 19  1  0  0  0  0
 12 23  1  0  0  0  0
 12 24  2  0  0  0  0
 13 14  1  0  0  0  0
 13 15  1  0  0  0  0
 13 32  1  0  0  0  0
 13 33  1  0  0  0  0
 14 16  1  0  0  0  0
 14 34  1  0  0  0  0
 14 35  1  0  0  0  0
 15 17  1  0  0  0  0
 15 36  1  0  0  0  0
 15 37  1  0  0  0  0
 16 18  1  0  0  0  0
 16 38  1  0  0  0  0
 16 39  1  0  0  0  0
 17 18  1  0  0  0  0
 17 40  1  0  0  0  0
 17 41  1  0  0  0  0
 18 19  1  0  0  0  0
 19 42  1  0  0  0  0
 19 43  1  0  0  0  0
 21 22  2  0  0  0  0
 23 44  1  0  0  0  0
M  END
>  <Chemgauss4 Score>
-5.73310661315918

>  <Number of Confs>
77

$$$$
