ADA-UNI-f8e-6
 OpenBabel03242009303D

 40 42  0  0  1  0  0  0  0  0999 V2000
    6.0618   -5.7794   22.0834 C   0  0  0  0  0  0  0  0  0  0  0  0
    7.3408   -6.1217   22.5223 C   0  0  0  0  0  0  0  0  0  0  0  0
    5.3057   -4.8487   22.7960 C   0  0  0  0  0  0  0  0  0  0  0  0
   12.0208   -1.1405   22.5113 C   0  0  0  0  0  0  0  0  0  0  0  0
    7.8637   -5.5334   23.6739 C   0  0  0  0  0  0  0  0  0  0  0  0
    5.8286   -4.2604   23.9476 C   0  0  0  0  0  0  0  0  0  0  0  0
   11.0911   -2.0957   22.9068 C   0  0  0  0  0  0  0  0  0  0  0  0
   12.2827   -0.0923   23.3787 C   0  0  0  0  0  0  0  0  0  0  0  0
   10.7926   -0.8899   24.9348 C   0  0  0  0  0  0  0  0  0  0  0  0
    7.1076   -4.6027   24.3865 C   0  0  0  0  0  0  0  0  0  0  0  0
   10.4607   -1.9753   24.1402 C   0  0  0  0  0  0  0  0  0  0  0  0
    8.4200   -2.7231   25.4054 C   0  0  0  0  0  0  0  0  0  0  0  0
    6.8444   -4.0833   26.8977 C   0  0  0  0  0  0  0  0  0  0  0  0
    8.0862   -4.9071   26.7526 C   0  0  1  0  0  0  0  0  0  0  0  0
    7.6652   -3.9747   25.6174 C   0  0  1  0  0  0  0  0  0  0  0  0
   10.3793   -6.6294   26.8932 C   0  0  0  0  0  0  0  0  0  0  0  0
    9.2709   -4.6261   27.6138 C   0  0  0  0  0  0  0  0  0  0  0  0
   11.6904    0.0582   24.5846 N   0  0  0  0  0  0  0  0  0  0  0  0
    9.5101   -2.9314   24.5701 N   0  0  0  0  0  0  0  0  0  0  0  0
   10.4688   -5.1759   27.0421 N   0  0  0  0  0  0  0  0  0  0  0  0
    8.0606   -1.6758   25.9336 O   0  0  0  0  0  0  0  0  0  0  0  0
    5.6548   -6.2374   21.1867 H   0  0  0  0  0  0  0  0  0  0  0  0
    7.9299   -6.8463   21.9675 H   0  0  0  0  0  0  0  0  0  0  0  0
    4.3097   -4.5824   22.4542 H   0  0  0  0  0  0  0  0  0  0  0  0
   12.5244   -1.2142   21.5542 H   0  0  0  0  0  0  0  0  0  0  0  0
    8.8609   -5.8071   24.0081 H   0  0  0  0  0  0  0  0  0  0  0  0
    5.2309   -3.5368   24.4960 H   0  0  0  0  0  0  0  0  0  0  0  0
   10.8656   -2.9292   22.2467 H   0  0  0  0  0  0  0  0  0  0  0  0
   12.9991    0.6793   23.1164 H   0  0  0  0  0  0  0  0  0  0  0  0
   10.3343   -0.7417   25.9082 H   0  0  0  0  0  0  0  0  0  0  0  0
    5.8921   -4.6012   26.8636 H   0  0  0  0  0  0  0  0  0  0  0  0
    6.8554   -3.2478   27.5889 H   0  0  0  0  0  0  0  0  0  0  0  0
    7.9607   -5.9746   26.6033 H   0  0  0  0  0  0  0  0  0  0  0  0
   10.1947   -7.0885   27.8756 H   0  0  0  0  0  0  0  0  0  0  0  0
    9.5526   -6.8778   26.2114 H   0  0  0  0  0  0  0  0  0  0  0  0
   11.3234   -7.0144   26.4803 H   0  0  0  0  0  0  0  0  0  0  0  0
    9.3888   -3.5375   27.7171 H   0  0  0  0  0  0  0  0  0  0  0  0
    9.1077   -5.0734   28.6052 H   0  0  0  0  0  0  0  0  0  0  0  0
    9.6526   -3.8762   24.2190 H   0  0  0  0  0  0  0  0  0  0  0  0
   10.6409   -4.7675   26.1164 H   0  0  0  0  0  0  0  0  0  0  0  0
  1  2  1  0  0  0  0
  1  3  2  0  0  0  0
  1 22  1  0  0  0  0
  2  5  2  0  0  0  0
  2 23  1  0  0  0  0
  3  6  1  0  0  0  0
  3 24  1  0  0  0  0
  4  7  2  0  0  0  0
  4  8  1  0  0  0  0
  4 25  1  0  0  0  0
  5 10  1  0  0  0  0
  5 26  1  0  0  0  0
  6 10  2  0  0  0  0
  6 27  1  0  0  0  0
  7 11  1  0  0  0  0
  7 28  1  0  0  0  0
  8 18  2  0  0  0  0
  8 29  1  0  0  0  0
  9 11  2  0  0  0  0
  9 18  1  0  0  0  0
  9 30  1  0  0  0  0
 10 15  1  0  0  0  0
 11 19  1  0  0  0  0
 12 19  1  0  0  0  0
 12 21  2  0  0  0  0
 13 14  1  0  0  0  0
 13 15  1  0  0  0  0
 13 31  1  0  0  0  0
 13 32  1  0  0  0  0
 14 15  1  0  0  0  0
 14 17  1  0  0  0  0
 14 33  1  6  0  0  0
 15 12  1  6  0  0  0
 16 20  1  0  0  0  0
 16 34  1  0  0  0  0
 16 35  1  0  0  0  0
 16 36  1  0  0  0  0
 17 20  1  0  0  0  0
 17 37  1  0  0  0  0
 17 38  1  0  0  0  0
 19 39  1  0  0  0  0
 20 40  1  0  0  0  0
M  END
>  <Chemgauss4 Score>
-4.96894836425781

>  <Number of Confs>
60

$$$$
