DAN-LON-a5f-6
 OpenBabel03242009303D

 44 46  0  0  1  0  0  0  0  0999 V2000
    4.6285   -5.7433   23.2425 C   0  0  0  0  0  0  0  0  0  0  0  0
    4.5825   -4.3516   23.3223 C   0  0  0  0  0  0  0  0  0  0  0  0
    5.7781   -6.4271   23.6384 C   0  0  0  0  0  0  0  0  0  0  0  0
   10.6980    1.6929   22.6847 C   0  0  0  0  0  0  0  0  0  0  0  0
    5.6862   -3.6434   23.7979 C   0  0  0  0  0  0  0  0  0  0  0  0
    6.8817   -5.7190   24.1140 C   0  0  0  0  0  0  0  0  0  0  0  0
   11.1838    0.4510   23.0936 C   0  0  0  0  0  0  0  0  0  0  0  0
    9.5907    1.7648   21.8395 C   0  0  0  0  0  0  0  0  0  0  0  0
    9.4551   -0.6472   21.8119 C   0  0  0  0  0  0  0  0  0  0  0  0
    6.8358   -4.3271   24.1938 C   0  0  0  0  0  0  0  0  0  0  0  0
   10.5624   -0.7190   22.6572 C   0  0  0  0  0  0  0  0  0  0  0  0
    8.9693    0.5948   21.4030 C   0  0  0  0  0  0  0  0  0  0  0  0
    8.1196   -4.3393   27.0655 C   0  0  0  0  0  0  0  0  0  0  0  0
   10.0724   -4.7668   25.5009 C   0  0  0  0  0  0  0  0  0  0  0  0
   10.9718   -3.6960   24.8682 C   0  0  0  0  0  0  0  0  0  0  0  0
    8.9934   -3.1823   23.5578 C   0  0  0  0  0  0  0  0  0  0  0  0
    8.0391   -3.5559   24.7121 C   0  0  2  0  0  0  0  0  0  0  0  0
   11.0866   -2.0555   23.0967 C   0  0  0  0  0  0  0  0  0  0  0  0
    8.8987   -5.0244   28.1591 C   0  0  0  0  0  0  0  0  0  0  0  0
    8.7373   -4.2498   25.8149 N   0  0  0  0  0  0  0  0  0  0  0  0
   10.2416   -2.6643   24.1187 N   0  0  0  0  0  0  0  0  0  0  0  0
    6.9939   -3.8976   27.3106 O   0  0  0  0  0  0  0  0  0  0  0  0
    7.6038    0.6841   20.3593 Cl  0  0  0  0  0  0  0  0  0  0  0  0
    7.9008   -4.9565   29.6074 Cl  0  0  0  0  0  0  0  0  0  0  0  0
    3.7686   -6.2947   22.8734 H   0  0  0  0  0  0  0  0  0  0  0  0
    3.6872   -3.8191   23.0151 H   0  0  0  0  0  0  0  0  0  0  0  0
    5.8138   -7.5107   23.5775 H   0  0  0  0  0  0  0  0  0  0  0  0
   11.1822    2.6038   23.0247 H   0  0  0  0  0  0  0  0  0  0  0  0
    5.6414   -2.5591   23.8564 H   0  0  0  0  0  0  0  0  0  0  0  0
    7.7731   -6.2601   24.4202 H   0  0  0  0  0  0  0  0  0  0  0  0
   12.0471    0.4045   23.7522 H   0  0  0  0  0  0  0  0  0  0  0  0
    9.2231    2.7397   21.5286 H   0  0  0  0  0  0  0  0  0  0  0  0
    8.9738   -1.5623   21.4748 H   0  0  0  0  0  0  0  0  0  0  0  0
    9.9203   -5.5891   24.7903 H   0  0  0  0  0  0  0  0  0  0  0  0
   10.5721   -5.1922   26.3733 H   0  0  0  0  0  0  0  0  0  0  0  0
   11.5414   -3.1946   25.6599 H   0  0  0  0  0  0  0  0  0  0  0  0
   11.6988   -4.2135   24.2286 H   0  0  0  0  0  0  0  0  0  0  0  0
    9.1876   -4.0388   22.8968 H   0  0  0  0  0  0  0  0  0  0  0  0
    8.5034   -2.4149   22.9438 H   0  0  0  0  0  0  0  0  0  0  0  0
    7.6328   -2.6084   25.1516 H   0  0  0  0  0  0  0  0  0  0  0  0
   11.1412   -2.7468   22.2486 H   0  0  0  0  0  0  0  0  0  0  0  0
   12.0974   -1.9652   23.5082 H   0  0  0  0  0  0  0  0  0  0  0  0
    9.8259   -4.4862   28.3206 H   0  0  0  0  0  0  0  0  0  0  0  0
    9.0717   -6.0560   27.8743 H   0  0  0  0  0  0  0  0  0  0  0  0
  1  2  1  0  0  0  0
  1  3  2  0  0  0  0
  1 25  1  0  0  0  0
  2  5  2  0  0  0  0
  2 26  1  0  0  0  0
  3  6  1  0  0  0  0
  3 27  1  0  0  0  0
  4  7  2  0  0  0  0
  4  8  1  0  0  0  0
  4 28  1  0  0  0  0
  5 10  1  0  0  0  0
  5 29  1  0  0  0  0
  6 10  2  0  0  0  0
  6 30  1  0  0  0  0
  7 11  1  0  0  0  0
  7 31  1  0  0  0  0
  8 12  2  0  0  0  0
  8 32  1  0  0  0  0
  9 11  2  0  0  0  0
  9 12  1  0  0  0  0
  9 33  1  0  0  0  0
 10 17  1  0  0  0  0
 11 18  1  0  0  0  0
 12 23  1  0  0  0  0
 13 19  1  0  0  0  0
 13 20  1  0  0  0  0
 13 22  2  0  0  0  0
 14 15  1  0  0  0  0
 14 20  1  0  0  0  0
 14 34  1  0  0  0  0
 14 35  1  0  0  0  0
 15 21  1  0  0  0  0
 15 36  1  0  0  0  0
 15 37  1  0  0  0  0
 16 17  1  0  0  0  0
 16 21  1  0  0  0  0
 16 38  1  0  0  0  0
 16 39  1  0  0  0  0
 17 20  1  0  0  0  0
 17 40  1  1  0  0  0
 18 21  1  0  0  0  0
 18 41  1  0  0  0  0
 18 42  1  0  0  0  0
 19 24  1  0  0  0  0
 19 43  1  0  0  0  0
 19 44  1  0  0  0  0
M  END
>  <Chemgauss4 Score>
-5.49272108078003

>  <Number of Confs>
70

$$$$
