SAL-INS-cba-7
 OpenBabel03242009303D

 40 43  0  0  0  0  0  0  0  0999 V2000
   10.6679   -3.5935   24.2463 C   0  0  0  0  0  0  0  0  0  0  0  0
    5.2322   -4.3759   26.3925 C   0  0  0  0  0  0  0  0  0  0  0  0
    5.5811   -5.5153   25.7066 C   0  0  0  0  0  0  0  0  0  0  0  0
   10.5088   -6.0833   26.8874 C   0  0  0  0  0  0  0  0  0  0  0  0
    7.4314   -0.4431   21.6751 C   0  0  0  0  0  0  0  0  0  0  0  0
    6.5110    1.5355   21.9829 C   0  0  0  0  0  0  0  0  0  0  0  0
    9.7317   -5.0501   27.3641 C   0  0  0  0  0  0  0  0  0  0  0  0
   10.5482   -4.5050   25.3278 C   0  0  0  0  0  0  0  0  0  0  0  0
    9.7689   -4.0490   26.3513 C   0  0  0  0  0  0  0  0  0  0  0  0
    8.3808    0.5203   21.9220 C   0  0  0  0  0  0  0  0  0  0  0  0
    9.9450   -2.4512   24.5167 C   0  0  0  0  0  0  0  0  0  0  0  0
    6.6931   -5.3428   27.6014 C   0  0  0  0  0  0  0  0  0  0  0  0
   10.3125   -1.0164   22.4792 C   0  0  0  0  0  0  0  0  0  0  0  0
    8.9920   -4.9219   28.6231 C   0  0  0  0  0  0  0  0  0  0  0  0
    9.8765    0.3579   21.9961 C   0  0  0  0  0  0  0  0  0  0  0  0
    7.6672   -5.7279   28.6880 C   0  0  0  0  0  0  0  0  0  0  0  0
    5.9281   -4.2742   27.5711 N   0  0  0  0  0  0  0  0  0  0  0  0
    7.8015    1.7497   22.1130 N   0  0  0  0  0  0  0  0  0  0  0  0
    6.2386    0.2221   21.7178 N   0  0  0  0  0  0  0  0  0  0  0  0
   11.0058   -5.7578   25.6539 N   0  0  0  0  0  0  0  0  0  0  0  0
    6.5181   -6.1241   26.4931 N   0  0  0  0  0  0  0  0  0  0  0  0
    9.7793   -1.3216   23.7605 N   0  0  0  0  0  0  0  0  0  0  0  0
   11.0407   -1.7450   21.8128 O   0  0  0  0  0  0  0  0  0  0  0  0
    9.1375   -2.4665   26.0372 S   0  0  0  0  0  0  0  0  0  0  0  0
   11.2379   -3.7612   23.3415 H   0  0  0  0  0  0  0  0  0  0  0  0
    4.5165   -3.6229   26.0970 H   0  0  0  0  0  0  0  0  0  0  0  0
    5.2602   -5.9351   24.7644 H   0  0  0  0  0  0  0  0  0  0  0  0
   10.7548   -7.0393   27.3283 H   0  0  0  0  0  0  0  0  0  0  0  0
    7.4898   -1.5043   21.4801 H   0  0  0  0  0  0  0  0  0  0  0  0
    5.7304    2.2783   22.0676 H   0  0  0  0  0  0  0  0  0  0  0  0
    9.6202   -5.2590   29.4767 H   0  0  0  0  0  0  0  0  0  0  0  0
    8.7670   -3.8594   28.8670 H   0  0  0  0  0  0  0  0  0  0  0  0
   10.3160    0.5385   21.0068 H   0  0  0  0  0  0  0  0  0  0  0  0
   10.2952    1.1176   22.6683 H   0  0  0  0  0  0  0  0  0  0  0  0
    7.1752   -5.5798   29.6583 H   0  0  0  0  0  0  0  0  0  0  0  0
    7.8858   -6.8018   28.6287 H   0  0  0  0  0  0  0  0  0  0  0  0
    5.3223   -0.1823   21.5780 H   0  0  0  0  0  0  0  0  0  0  0  0
   11.6058   -6.3162   25.0598 H   0  0  0  0  0  0  0  0  0  0  0  0
    6.9921   -6.9948   26.2923 H   0  0  0  0  0  0  0  0  0  0  0  0
    9.1806   -0.5854   24.1822 H   0  0  0  0  0  0  0  0  0  0  0  0
  1  8  1  0  0  0  0
  1 11  2  0  0  0  0
  1 25  1  0  0  0  0
  2  3  2  0  0  0  0
  2 17  1  0  0  0  0
  2 26  1  0  0  0  0
  3 21  1  0  0  0  0
  3 27  1  0  0  0  0
  4  7  2  0  0  0  0
  4 20  1  0  0  0  0
  4 28  1  0  0  0  0
  5 10  2  0  0  0  0
  5 19  1  0  0  0  0
  5 29  1  0  0  0  0
  6 18  2  0  0  0  0
  6 19  1  0  0  0  0
  6 30  1  0  0  0  0
  7  9  1  0  0  0  0
  7 14  1  0  0  0  0
  8  9  2  0  0  0  0
  8 20  1  0  0  0  0
  9 24  1  0  0  0  0
 10 15  1  0  0  0  0
 10 18  1  0  0  0  0
 11 22  1  0  0  0  0
 11 24  1  0  0  0  0
 12 16  1  0  0  0  0
 12 17  2  0  0  0  0
 12 21  1  0  0  0  0
 13 15  1  0  0  0  0
 13 22  1  0  0  0  0
 13 23  2  0  0  0  0
 14 16  1  0  0  0  0
 14 31  1  0  0  0  0
 14 32  1  0  0  0  0
 15 33  1  0  0  0  0
 15 34  1  0  0  0  0
 16 35  1  0  0  0  0
 16 36  1  0  0  0  0
 19 37  1  0  0  0  0
 20 38  1  0  0  0  0
 21 39  1  0  0  0  0
 22 40  1  0  0  0  0
M  END
>  <Chemgauss4 Score>
-7.10677528381348

>  <Number of Confs>
200

$$$$
