CHR-SOS-70e-8
 OpenBabel03242009303D

 39 41  0  0  0  0  0  0  0  0999 V2000
   13.2031   -0.3225   23.0762 C   0  0  0  0  0  0  0  0  0  0  0  0
   11.9766    0.0368   23.6349 C   0  0  0  0  0  0  0  0  0  0  0  0
   13.2763   -1.3915   22.1830 C   0  0  0  0  0  0  0  0  0  0  0  0
    7.6209   -6.3403   28.6941 C   0  0  0  0  0  0  0  0  0  0  0  0
    8.1807   -5.8865   27.5050 C   0  0  0  0  0  0  0  0  0  0  0  0
   10.8232   -0.6729   23.3005 C   0  0  0  0  0  0  0  0  0  0  0  0
   12.1229   -2.1012   21.8487 C   0  0  0  0  0  0  0  0  0  0  0  0
    7.6006   -5.4726   29.7741 C   0  0  0  0  0  0  0  0  0  0  0  0
    8.6272   -3.8072   28.5696 C   0  0  0  0  0  0  0  0  0  0  0  0
    8.6958   -4.5970   27.4333 C   0  0  0  0  0  0  0  0  0  0  0  0
   10.8964   -1.7419   22.4074 C   0  0  0  0  0  0  0  0  0  0  0  0
    9.4103   -4.7775   25.0252 C   0  0  0  0  0  0  0  0  0  0  0  0
    7.0971   -3.2646   23.9938 C   0  0  0  0  0  0  0  0  0  0  0  0
    7.8074   -3.8593   22.7651 C   0  0  0  0  0  0  0  0  0  0  0  0
    8.1530   -2.1453   24.0006 C   0  0  0  0  0  0  0  0  0  0  0  0
    9.0861   -3.0779   23.1780 C   0  0  0  0  0  0  0  0  0  0  0  0
   10.0855   -3.8821   24.0001 C   0  0  0  0  0  0  0  0  0  0  0  0
    8.0911   -4.2132   29.7424 N   0  0  0  0  0  0  0  0  0  0  0  0
    9.2720   -4.1070   26.2371 N   0  0  0  0  0  0  0  0  0  0  0  0
    9.0583   -5.9227   24.7622 O   0  0  0  0  0  0  0  0  0  0  0  0
    9.7719   -2.4356   22.0822 O   0  0  0  0  0  0  0  0  0  0  0  0
   14.1012    0.2302   23.3358 H   0  0  0  0  0  0  0  0  0  0  0  0
   11.9194    0.8690   24.3305 H   0  0  0  0  0  0  0  0  0  0  0  0
   14.2317   -1.6706   21.7482 H   0  0  0  0  0  0  0  0  0  0  0  0
    7.2134   -7.3418   28.7729 H   0  0  0  0  0  0  0  0  0  0  0  0
    8.2104   -6.5453   26.6412 H   0  0  0  0  0  0  0  0  0  0  0  0
    9.8711   -0.3889   23.7404 H   0  0  0  0  0  0  0  0  0  0  0  0
   12.1862   -2.9342   21.1538 H   0  0  0  0  0  0  0  0  0  0  0  0
    7.1757   -5.7791   30.7242 H   0  0  0  0  0  0  0  0  0  0  0  0
    9.0123   -2.7918   28.5755 H   0  0  0  0  0  0  0  0  0  0  0  0
    6.0655   -2.9410   23.8335 H   0  0  0  0  0  0  0  0  0  0  0  0
    7.1325   -3.9095   24.8790 H   0  0  0  0  0  0  0  0  0  0  0  0
    7.8858   -4.9503   22.7572 H   0  0  0  0  0  0  0  0  0  0  0  0
    7.3786   -3.5337   21.8099 H   0  0  0  0  0  0  0  0  0  0  0  0
    7.8412   -1.2435   23.4605 H   0  0  0  0  0  0  0  0  0  0  0  0
    8.5124   -1.8515   24.9909 H   0  0  0  0  0  0  0  0  0  0  0  0
   10.7577   -3.1945   24.5227 H   0  0  0  0  0  0  0  0  0  0  0  0
   10.6848   -4.5053   23.3294 H   0  0  0  0  0  0  0  0  0  0  0  0
    9.6215   -3.1520   26.2821 H   0  0  0  0  0  0  0  0  0  0  0  0
  1  2  1  0  0  0  0
  1  3  2  0  0  0  0
  1 22  1  0  0  0  0
  2  6  2  0  0  0  0
  2 23  1  0  0  0  0
  3  7  1  0  0  0  0
  3 24  1  0  0  0  0
  4  5  2  0  0  0  0
  4  8  1  0  0  0  0
  4 25  1  0  0  0  0
  5 10  1  0  0  0  0
  5 26  1  0  0  0  0
  6 11  1  0  0  0  0
  6 27  1  0  0  0  0
  7 11  2  0  0  0  0
  7 28  1  0  0  0  0
  8 18  2  0  0  0  0
  8 29  1  0  0  0  0
  9 10  2  0  0  0  0
  9 18  1  0  0  0  0
  9 30  1  0  0  0  0
 10 19  1  0  0  0  0
 11 21  1  0  0  0  0
 12 17  1  0  0  0  0
 12 19  1  0  0  0  0
 12 20  2  0  0  0  0
 13 14  1  0  0  0  0
 13 15  1  0  0  0  0
 13 31  1  0  0  0  0
 13 32  1  0  0  0  0
 14 16  1  0  0  0  0
 14 33  1  0  0  0  0
 14 34  1  0  0  0  0
 15 16  1  0  0  0  0
 15 35  1  0  0  0  0
 15 36  1  0  0  0  0
 16 17  1  0  0  0  0
 16 21  1  0  0  0  0
 17 37  1  0  0  0  0
 17 38  1  0  0  0  0
 19 39  1  0  0  0  0
M  END
>  <Chemgauss4 Score>
-6.98888111114502

>  <Number of Confs>
194

$$$$
