AGN-NEW-c7b-2
 OpenBabel03242009303D

 35 36  0  0  0  0  0  0  0  0999 V2000
   11.6109    0.2780   24.3438 C   0  0  0  0  0  0  0  0  0  0  0  0
    7.9942   -5.6114   27.6689 C   0  0  0  0  0  0  0  0  0  0  0  0
   12.7034   -0.2066   23.6246 C   0  0  0  0  0  0  0  0  0  0  0  0
   10.3571   -0.3138   24.1906 C   0  0  0  0  0  0  0  0  0  0  0  0
    8.1794   -4.8568   26.5158 C   0  0  0  0  0  0  0  0  0  0  0  0
   11.2882   -1.8747   22.5989 C   0  0  0  0  0  0  0  0  0  0  0  0
    8.1104   -4.9681   28.8906 C   0  0  0  0  0  0  0  0  0  0  0  0
   12.5420   -1.2829   22.7521 C   0  0  0  0  0  0  0  0  0  0  0  0
   10.1957   -1.3901   23.3182 C   0  0  0  0  0  0  0  0  0  0  0  0
    8.4710   -3.5012   26.6182 C   0  0  0  0  0  0  0  0  0  0  0  0
    8.5657   -2.9523   27.8869 C   0  0  0  0  0  0  0  0  0  0  0  0
    8.4655   -0.8405   29.1300 C   0  0  0  0  0  0  0  0  0  0  0  0
    8.8687   -1.5398   28.0802 C   0  0  0  0  0  0  0  0  0  0  0  0
    8.5884   -3.1707   24.1238 C   0  0  0  0  0  0  0  0  0  0  0  0
   13.7109   -1.8014   21.9846 C   0  0  0  0  0  0  0  0  0  0  0  0
    8.8548   -2.0223   23.1540 C   0  0  0  0  0  0  0  0  0  0  0  0
    8.3924   -3.6533   29.0298 N   0  0  0  0  0  0  0  0  0  0  0  0
    8.6588   -2.7336   25.4441 N   0  0  0  0  0  0  0  0  0  0  0  0
    8.3510   -4.3079   23.7294 O   0  0  0  0  0  0  0  0  0  0  0  0
   11.7367    1.1160   25.0232 H   0  0  0  0  0  0  0  0  0  0  0  0
    7.7665   -6.6697   27.6131 H   0  0  0  0  0  0  0  0  0  0  0  0
   13.6767    0.2605   23.7508 H   0  0  0  0  0  0  0  0  0  0  0  0
    9.5113    0.0708   24.7545 H   0  0  0  0  0  0  0  0  0  0  0  0
    8.0940   -5.3361   25.5441 H   0  0  0  0  0  0  0  0  0  0  0  0
   11.1620   -2.7144   21.9196 H   0  0  0  0  0  0  0  0  0  0  0  0
    7.9757   -5.5125   29.8194 H   0  0  0  0  0  0  0  0  0  0  0  0
    8.7481    0.2057   29.1987 H   0  0  0  0  0  0  0  0  0  0  0  0
    7.8764   -1.2396   29.9470 H   0  0  0  0  0  0  0  0  0  0  0  0
    9.4775   -1.0660   27.3296 H   0  0  0  0  0  0  0  0  0  0  0  0
   14.2235   -2.5867   22.5535 H   0  0  0  0  0  0  0  0  0  0  0  0
   13.3996   -2.2188   21.0182 H   0  0  0  0  0  0  0  0  0  0  0  0
   14.4315   -1.0020   21.7678 H   0  0  0  0  0  0  0  0  0  0  0  0
    8.0585   -1.2717   23.2878 H   0  0  0  0  0  0  0  0  0  0  0  0
    8.7374   -2.4072   22.1276 H   0  0  0  0  0  0  0  0  0  0  0  0
    8.8698   -1.7472   25.5807 H   0  0  0  0  0  0  0  0  0  0  0  0
  1  3  1  0  0  0  0
  1  4  2  0  0  0  0
  1 20  1  0  0  0  0
  2  5  2  0  0  0  0
  2  7  1  0  0  0  0
  2 21  1  0  0  0  0
  3  8  2  0  0  0  0
  3 22  1  0  0  0  0
  4  9  1  0  0  0  0
  4 23  1  0  0  0  0
  5 10  1  0  0  0  0
  5 24  1  0  0  0  0
  6  8  1  0  0  0  0
  6  9  2  0  0  0  0
  6 25  1  0  0  0  0
  7 17  2  0  0  0  0
  7 26  1  0  0  0  0
  8 15  1  0  0  0  0
  9 16  1  0  0  0  0
 10 11  2  0  0  0  0
 10 18  1  0  0  0  0
 11 13  1  0  0  0  0
 11 17  1  0  0  0  0
 12 13  2  0  0  0  0
 12 27  1  0  0  0  0
 12 28  1  0  0  0  0
 13 29  1  0  0  0  0
 14 16  1  0  0  0  0
 14 18  1  0  0  0  0
 14 19  2  0  0  0  0
 15 30  1  0  0  0  0
 15 31  1  0  0  0  0
 15 32  1  0  0  0  0
 16 33  1  0  0  0  0
 16 34  1  0  0  0  0
 18 35  1  0  0  0  0
M  END
>  <Chemgauss4 Score>
-5.62836742401123

>  <Number of Confs>
60

$$$$
