JOH-MSK-a63-3
 OpenBabel03242009303D

 54 56  0  0  1  0  0  0  0  0999 V2000
   11.0574   -1.7415   21.9703 C   0  0  0  0  0  0  0  0  0  0  0  0
   10.1383   -2.5069   22.6972 C   0  0  0  0  0  0  0  0  0  0  0  0
   12.9523    0.0278   22.2588 C   0  0  0  0  0  0  0  0  0  0  0  0
   10.9259   -1.5603   24.7920 C   0  0  0  0  0  0  0  0  0  0  0  0
   13.4607    0.6161   23.3939 C   0  0  0  0  0  0  0  0  0  0  0  0
   11.9252   -0.8716   22.6601 C   0  0  0  0  0  0  0  0  0  0  0  0
   11.8396   -0.8013   24.0522 C   0  0  0  0  0  0  0  0  0  0  0  0
   10.0753   -2.4161   24.0863 C   0  0  0  0  0  0  0  0  0  0  0  0
    6.0007   -6.0004   23.8625 C   0  0  0  0  0  0  0  0  0  0  0  0
    9.0825   -1.3454   28.9084 C   0  0  0  0  0  0  0  0  0  0  0  0
    9.6129   -5.3077   25.9430 C   0  0  1  0  0  0  0  0  0  0  0  0
    7.2113   -6.0649   26.0380 C   0  0  1  0  0  0  0  0  0  0  0  0
    9.2824   -4.5852   24.6282 C   0  0  1  0  0  0  0  0  0  0  0  0
    6.9670   -5.2668   24.7481 C   0  0  1  0  0  0  0  0  0  0  0  0
    8.3904   -5.5112   26.8651 C   0  0  2  0  0  0  0  0  0  0  0  0
    8.6652   -0.2933   29.8816 C   0  0  0  0  0  0  0  0  0  0  0  0
    6.1590   -3.2793   23.8217 C   0  0  0  0  0  0  0  0  0  0  0  0
    8.0447   -4.2544   27.6770 C   0  0  0  0  0  0  0  0  0  0  0  0
    9.1941   -3.8053   28.5638 C   0  0  0  0  0  0  0  0  0  0  0  0
   12.7834    0.1095   24.4705 N   0  0  0  0  0  0  0  0  0  0  0  0
    8.8667   -2.6440   29.3438 N   0  0  0  0  0  0  0  0  0  0  0  0
    6.2431   -6.3889   22.7295 O   0  0  0  0  0  0  0  0  0  0  0  0
    9.5670   -1.0151   27.8323 O   0  0  0  0  0  0  0  0  0  0  0  0
    8.1547   -5.1698   23.9691 O   0  0  0  0  0  0  0  0  0  0  0  0
    4.8123   -6.1738   24.4909 O   0  0  0  0  0  0  0  0  0  0  0  0
   10.1181   -6.6045   25.5873 O   0  0  0  0  0  0  0  0  0  0  0  0
    6.0259   -6.1157   26.8319 O   0  0  0  0  0  0  0  0  0  0  0  0
    8.7536   -6.5003   27.8453 O   0  0  0  0  0  0  0  0  0  0  0  0
    9.1679   -3.1752   24.7715 O   0  0  0  0  0  0  0  0  0  0  0  0
    6.3789   -4.0059   25.0180 O   0  0  0  0  0  0  0  0  0  0  0  0
   11.0958   -1.8220   20.8877 H   0  0  0  0  0  0  0  0  0  0  0  0
    9.4690   -3.1779   22.1643 H   0  0  0  0  0  0  0  0  0  0  0  0
   13.2845    0.2245   21.2486 H   0  0  0  0  0  0  0  0  0  0  0  0
   10.8803   -1.4865   25.8738 H   0  0  0  0  0  0  0  0  0  0  0  0
   14.2432    1.3489   23.5310 H   0  0  0  0  0  0  0  0  0  0  0  0
   10.4084   -4.7868   26.4626 H   0  0  0  0  0  0  0  0  0  0  0  0
    7.4387   -7.1318   25.7533 H   0  0  0  0  0  0  0  0  0  0  0  0
   10.1860   -4.7268   23.9120 H   0  0  0  0  0  0  0  0  0  0  0  0
    9.4774   -0.0122   30.5711 H   0  0  0  0  0  0  0  0  0  0  0  0
    8.3671    0.6442   29.3853 H   0  0  0  0  0  0  0  0  0  0  0  0
    7.8150   -0.5609   30.5293 H   0  0  0  0  0  0  0  0  0  0  0  0
    5.7059   -2.3137   24.0590 H   0  0  0  0  0  0  0  0  0  0  0  0
    5.5003   -3.8509   23.1630 H   0  0  0  0  0  0  0  0  0  0  0  0
    7.1176   -3.1167   23.3233 H   0  0  0  0  0  0  0  0  0  0  0  0
    7.1752   -4.4812   28.2985 H   0  0  0  0  0  0  0  0  0  0  0  0
    7.7601   -3.4589   26.9840 H   0  0  0  0  0  0  0  0  0  0  0  0
    9.4475   -4.6032   29.2689 H   0  0  0  0  0  0  0  0  0  0  0  0
   10.0878   -3.5734   27.9761 H   0  0  0  0  0  0  0  0  0  0  0  0
   12.9513    0.3665   25.4334 H   0  0  0  0  0  0  0  0  0  0  0  0
    8.4541   -2.7821   30.2658 H   0  0  0  0  0  0  0  0  0  0  0  0
    4.1659   -6.6500   23.9273 H   0  0  0  0  0  0  0  0  0  0  0  0
   10.9072   -6.4528   25.0449 H   0  0  0  0  0  0  0  0  0  0  0  0
    5.3544   -6.5495   26.2864 H   0  0  0  0  0  0  0  0  0  0  0  0
    9.5131   -6.1377   28.3219 H   0  0  0  0  0  0  0  0  0  0  0  0
  1  2  2  0  0  0  0
  1  6  1  0  0  0  0
  1 31  1  0  0  0  0
  2  8  1  0  0  0  0
  2 32  1  0  0  0  0
  3  5  2  0  0  0  0
  3  6  1  0  0  0  0
  3 33  1  0  0  0  0
  4  7  1  0  0  0  0
  4  8  2  0  0  0  0
  4 34  1  0  0  0  0
  5 20  1  0  0  0  0
  5 35  1  0  0  0  0
  6  7  2  0  0  0  0
  7 20  1  0  0  0  0
  8 29  1  0  0  0  0
  9 22  2  0  0  0  0
  9 25  1  0  0  0  0
 10 16  1  0  0  0  0
 10 21  1  0  0  0  0
 10 23  2  0  0  0  0
 11 13  1  0  0  0  0
 11 15  1  0  0  0  0
 11 26  1  0  0  0  0
 11 36  1  1  0  0  0
 12 14  1  0  0  0  0
 12 15  1  0  0  0  0
 12 27  1  0  0  0  0
 12 37  1  6  0  0  0
 13 24  1  0  0  0  0
 13 29  1  0  0  0  0
 13 38  1  6  0  0  0
 14  9  1  6  0  0  0
 14 24  1  0  0  0  0
 14 30  1  0  0  0  0
 15 18  1  0  0  0  0
 15 28  1  1  0  0  0
 16 39  1  0  0  0  0
 16 40  1  0  0  0  0
 16 41  1  0  0  0  0
 17 30  1  0  0  0  0
 17 42  1  0  0  0  0
 17 43  1  0  0  0  0
 17 44  1  0  0  0  0
 18 19  1  0  0  0  0
 18 45  1  0  0  0  0
 18 46  1  0  0  0  0
 19 21  1  0  0  0  0
 19 47  1  0  0  0  0
 19 48  1  0  0  0  0
 20 49  1  0  0  0  0
 21 50  1  0  0  0  0
 25 51  1  0  0  0  0
 26 52  1  0  0  0  0
 27 53  1  0  0  0  0
 28 54  1  0  0  0  0
M  END
>  <Chemgauss4 Score>
-5.89641094207764

>  <Number of Confs>
200

$$$$
