KIM-UNI-60f-10
 OpenBabel03242009303D

 43 45  0  0  1  0  0  0  0  0999 V2000
   12.7170   -0.8917   22.7255 C   0  0  0  0  0  0  0  0  0  0  0  0
   12.6011    0.2064   23.5625 C   0  0  0  0  0  0  0  0  0  0  0  0
   10.5054   -0.4306   24.2556 C   0  0  0  0  0  0  0  0  0  0  0  0
   11.6537   -1.7861   22.6744 C   0  0  0  0  0  0  0  0  0  0  0  0
   10.5230   -1.5584   23.4509 C   0  0  0  0  0  0  0  0  0  0  0  0
    7.1008   -4.0299   23.4035 C   0  0  0  0  0  0  0  0  0  0  0  0
    7.1818   -3.0278   22.5285 C   0  0  0  0  0  0  0  0  0  0  0  0
    8.1709   -4.3433   24.3330 C   0  0  0  0  0  0  0  0  0  0  0  0
    9.2796   -3.5578   24.3120 C   0  0  0  0  0  0  0  0  0  0  0  0
    8.3759   -2.1533   22.5031 C   0  0  0  0  0  0  0  0  0  0  0  0
    5.8399   -4.7560   27.1238 C   0  0  0  0  0  0  0  0  0  0  0  0
   10.4674   -3.9381   25.1809 C   0  0  0  0  0  0  0  0  0  0  0  0
   10.4477   -5.4046   25.6065 C   0  0  0  0  0  0  0  0  0  0  0  0
    9.0853   -5.7855   26.1619 C   0  0  0  0  0  0  0  0  0  0  0  0
   11.7515   -2.9783   21.7801 C   0  0  0  0  0  0  0  0  0  0  0  0
    6.2036   -6.1683   26.7027 C   0  0  0  0  0  0  0  0  0  0  0  0
    6.8132   -6.2452   25.3097 C   0  0  0  0  0  0  0  0  0  0  0  0
   11.5189    0.4609   24.3316 N   0  0  0  0  0  0  0  0  0  0  0  0
    9.3946   -2.4558   23.4337 N   0  0  0  0  0  0  0  0  0  0  0  0
    8.0344   -5.4488   25.1954 N   0  0  0  0  0  0  0  0  0  0  0  0
    5.9290   -4.5779   28.4881 N   0  0  0  0  0  0  0  0  0  0  0  0
    8.3704   -1.2102   21.7105 O   0  0  0  0  0  0  0  0  0  0  0  0
    5.5139   -3.8680   26.3415 O   0  0  0  0  0  0  0  0  0  0  0  0
   13.6129   -1.0404   22.1324 H   0  0  0  0  0  0  0  0  0  0  0  0
   13.4026    0.9338   23.6384 H   0  0  0  0  0  0  0  0  0  0  0  0
    9.6512   -0.1987   24.8849 H   0  0  0  0  0  0  0  0  0  0  0  0
    6.1849   -4.6101   23.4233 H   0  0  0  0  0  0  0  0  0  0  0  0
    6.3938   -2.8396   21.8084 H   0  0  0  0  0  0  0  0  0  0  0  0
   11.3899   -3.7216   24.6277 H   0  0  0  0  0  0  0  0  0  0  0  0
   10.4875   -3.3369   26.0974 H   0  0  0  0  0  0  0  0  0  0  0  0
   10.6939   -6.0420   24.7496 H   0  0  0  0  0  0  0  0  0  0  0  0
   11.2197   -5.5827   26.3665 H   0  0  0  0  0  0  0  0  0  0  0  0
    9.0457   -6.8609   26.3735 H   0  0  0  0  0  0  0  0  0  0  0  0
    8.9323   -5.2548   27.1089 H   0  0  0  0  0  0  0  0  0  0  0  0
   12.1949   -3.8229   22.3202 H   0  0  0  0  0  0  0  0  0  0  0  0
   10.7633   -3.2792   21.4112 H   0  0  0  0  0  0  0  0  0  0  0  0
   12.3693   -2.7633   20.8993 H   0  0  0  0  0  0  0  0  0  0  0  0
    5.3047   -6.7940   26.7615 H   0  0  0  0  0  0  0  0  0  0  0  0
    6.9281   -6.5505   27.4318 H   0  0  0  0  0  0  0  0  0  0  0  0
    7.0635   -7.2757   25.0375 H   0  0  0  0  0  0  0  0  0  0  0  0
    6.1093   -5.8544   24.5685 H   0  0  0  0  0  0  0  0  0  0  0  0
    6.2142   -5.3614   29.0661 H   0  0  0  0  0  0  0  0  0  0  0  0
    5.7193   -3.6909   28.9347 H   0  0  0  0  0  0  0  0  0  0  0  0
  1  2  2  0  0  0  0
  1  4  1  0  0  0  0
  1 24  1  0  0  0  0
  2 18  1  0  0  0  0
  2 25  1  0  0  0  0
  3  5  1  0  0  0  0
  3 18  2  0  0  0  0
  3 26  1  0  0  0  0
  4  5  2  0  0  0  0
  4 15  1  0  0  0  0
  5 19  1  0  0  0  0
  6  7  2  0  0  0  0
  6  8  1  0  0  0  0
  6 27  1  0  0  0  0
  7 10  1  0  0  0  0
  7 28  1  0  0  0  0
  8  9  2  0  0  0  0
  8 20  1  0  0  0  0
  9 12  1  0  0  0  0
  9 19  1  0  0  0  0
 10 19  1  0  0  0  0
 10 22  2  0  0  0  0
 11 16  1  0  0  0  0
 11 21  1  0  0  0  0
 11 23  2  0  0  0  0
 12 13  1  0  0  0  0
 12 29  1  0  0  0  0
 12 30  1  0  0  0  0
 13 14  1  0  0  0  0
 13 31  1  0  0  0  0
 13 32  1  0  0  0  0
 14 20  1  0  0  0  0
 14 33  1  0  0  0  0
 14 34  1  0  0  0  0
 15 35  1  0  0  0  0
 15 36  1  0  0  0  0
 15 37  1  0  0  0  0
 16 17  1  0  0  0  0
 16 38  1  0  0  0  0
 16 39  1  0  0  0  0
 17 20  1  0  0  0  0
 17 40  1  0  0  0  0
 17 41  1  0  0  0  0
 21 42  1  0  0  0  0
 21 43  1  0  0  0  0
M  END
>  <Chemgauss4 Score>
-5.78234243392944

>  <Number of Confs>
40

$$$$
