JOH-MEM-5e3-2
 OpenBabel03242009303D

 36 37  0  0  1  0  0  0  0  0999 V2000
    9.3195   -5.1442   27.0925 C   0  0  0  0  0  0  0  0  0  0  0  0
    8.0607   -4.7458   27.5492 C   0  0  0  0  0  0  0  0  0  0  0  0
    7.9767   -2.9650   25.8963 C   0  0  0  0  0  0  0  0  0  0  0  0
    9.2222   -3.3737   25.4470 C   0  0  0  0  0  0  0  0  0  0  0  0
    9.8807   -4.4634   26.0256 C   0  0  0  0  0  0  0  0  0  0  0  0
    7.3925   -3.6657   26.9529 C   0  0  0  0  0  0  0  0  0  0  0  0
   12.4496   -1.3145   22.2528 C   0  0  0  0  0  0  0  0  0  0  0  0
   11.2077   -3.8601   24.2558 C   0  0  0  0  0  0  0  0  0  0  0  0
   10.0954   -2.7825   24.3788 C   0  0  1  0  0  0  0  0  0  0  0  0
   13.8677   -1.7123   21.9999 C   0  0  0  0  0  0  0  0  0  0  0  0
    5.6335   -4.0357   28.5101 C   0  0  0  0  0  0  0  0  0  0  0  0
    9.3846   -2.5176   23.0583 C   0  0  0  0  0  0  0  0  0  0  0  0
   10.1309   -1.5204   22.1815 C   0  0  0  0  0  0  0  0  0  0  0  0
   11.4621   -2.0383   21.8620 N   0  0  0  0  0  0  0  0  0  0  0  0
   11.1389   -4.6749   25.4661 N   0  0  0  0  0  0  0  0  0  0  0  0
   12.3235   -0.1439   22.9189 O   0  0  0  0  0  0  0  0  0  0  0  0
   10.6524   -1.5704   24.8763 O   0  0  0  0  0  0  0  0  0  0  0  0
    6.1691   -3.2892   27.4192 O   0  0  0  0  0  0  0  0  0  0  0  0
    9.8378   -5.9710   27.5667 H   0  0  0  0  0  0  0  0  0  0  0  0
    7.6021   -5.2760   28.3802 H   0  0  0  0  0  0  0  0  0  0  0  0
    7.4715   -2.1162   25.4474 H   0  0  0  0  0  0  0  0  0  0  0  0
   11.0288   -4.5151   23.3941 H   0  0  0  0  0  0  0  0  0  0  0  0
   12.2049   -3.4194   24.1542 H   0  0  0  0  0  0  0  0  0  0  0  0
   14.1983   -1.3022   21.0419 H   0  0  0  0  0  0  0  0  0  0  0  0
   14.5041   -1.3308   22.8029 H   0  0  0  0  0  0  0  0  0  0  0  0
   13.9563   -2.8018   21.9669 H   0  0  0  0  0  0  0  0  0  0  0  0
    4.6554   -3.6323   28.7832 H   0  0  0  0  0  0  0  0  0  0  0  0
    6.3149   -3.9766   29.3625 H   0  0  0  0  0  0  0  0  0  0  0  0
    5.5227   -5.0793   28.2063 H   0  0  0  0  0  0  0  0  0  0  0  0
    8.3841   -2.1245   23.2719 H   0  0  0  0  0  0  0  0  0  0  0  0
    9.2541   -3.4655   22.5235 H   0  0  0  0  0  0  0  0  0  0  0  0
    9.5804   -1.3653   21.2478 H   0  0  0  0  0  0  0  0  0  0  0  0
   10.2240   -0.5510   22.6819 H   0  0  0  0  0  0  0  0  0  0  0  0
   11.6280   -5.5532   25.5678 H   0  0  0  0  0  0  0  0  0  0  0  0
   13.1770    0.2697   23.1369 H   0  0  0  0  0  0  0  0  0  0  0  0
   11.2103   -1.2103   24.1690 H   0  0  0  0  0  0  0  0  0  0  0  0
  1  2  2  0  0  0  0
  1  5  1  0  0  0  0
  1 19  1  0  0  0  0
  2  6  1  0  0  0  0
  2 20  1  0  0  0  0
  3  4  1  0  0  0  0
  3  6  2  0  0  0  0
  3 21  1  0  0  0  0
  4  5  2  0  0  0  0
  4  9  1  0  0  0  0
  5 15  1  0  0  0  0
  6 18  1  0  0  0  0
  7 10  1  0  0  0  0
  7 14  2  0  0  0  0
  7 16  1  0  0  0  0
  8  9  1  0  0  0  0
  8 15  1  0  0  0  0
  8 22  1  0  0  0  0
  8 23  1  0  0  0  0
  9 12  1  0  0  0  0
  9 17  1  1  0  0  0
 10 24  1  0  0  0  0
 10 25  1  0  0  0  0
 10 26  1  0  0  0  0
 11 18  1  0  0  0  0
 11 27  1  0  0  0  0
 11 28  1  0  0  0  0
 11 29  1  0  0  0  0
 12 13  1  0  0  0  0
 12 30  1  0  0  0  0
 12 31  1  0  0  0  0
 13 14  1  0  0  0  0
 13 32  1  0  0  0  0
 13 33  1  0  0  0  0
 15 34  1  0  0  0  0
 16 35  1  0  0  0  0
 17 36  1  0  0  0  0
M  END
>  <Chemgauss4 Score>
-4.97034502029419

>  <Number of Confs>
45

$$$$
