ANT-DIA-b7f-3
 OpenBabel03242009303D

 27 27  0  0  0  0  0  0  0  0999 V2000
   11.0336   -0.5864   24.7545 C   0  0  0  0  0  0  0  0  0  0  0  0
   12.0599   -0.9101   23.8672 C   0  0  0  0  0  0  0  0  0  0  0  0
    9.7236   -0.9785   24.4788 C   0  0  0  0  0  0  0  0  0  0  0  0
   11.7763   -1.6260   22.7041 C   0  0  0  0  0  0  0  0  0  0  0  0
    9.4401   -1.6943   23.3157 C   0  0  0  0  0  0  0  0  0  0  0  0
   10.4664   -2.0181   22.4283 C   0  0  0  0  0  0  0  0  0  0  0  0
   10.6466   -4.0879   25.1033 C   0  0  0  0  0  0  0  0  0  0  0  0
    8.0171   -2.1098   23.0336 C   0  0  0  0  0  0  0  0  0  0  0  0
    7.7630   -3.5897   23.3097 C   0  0  0  0  0  0  0  0  0  0  0  0
    7.9964   -3.9503   24.7196 N   0  0  0  0  0  0  0  0  0  0  0  0
    9.3175   -6.0573   24.0056 O   0  0  0  0  0  0  0  0  0  0  0  0
    8.9768   -5.5676   26.4552 O   0  0  0  0  0  0  0  0  0  0  0  0
   10.2064   -2.7160   21.2874 O   0  0  0  0  0  0  0  0  0  0  0  0
    9.1915   -5.1100   25.0958 S   0  0  0  0  0  0  0  0  0  0  0  0
   11.2538   -0.0285   25.6602 H   0  0  0  0  0  0  0  0  0  0  0  0
   13.0795   -0.6039   24.0818 H   0  0  0  0  0  0  0  0  0  0  0  0
    8.9308   -0.7201   25.1758 H   0  0  0  0  0  0  0  0  0  0  0  0
   12.5801   -1.8752   22.0166 H   0  0  0  0  0  0  0  0  0  0  0  0
   11.5077   -4.7163   25.3361 H   0  0  0  0  0  0  0  0  0  0  0  0
   10.7569   -3.6386   24.1152 H   0  0  0  0  0  0  0  0  0  0  0  0
   10.5206   -3.3151   25.8631 H   0  0  0  0  0  0  0  0  0  0  0  0
    7.7935   -1.8937   21.9812 H   0  0  0  0  0  0  0  0  0  0  0  0
    7.3266   -1.4920   23.6219 H   0  0  0  0  0  0  0  0  0  0  0  0
    6.7196   -3.8364   23.0894 H   0  0  0  0  0  0  0  0  0  0  0  0
    8.4026   -4.2311   22.6945 H   0  0  0  0  0  0  0  0  0  0  0  0
    7.8882   -3.1650   25.3746 H   0  0  0  0  0  0  0  0  0  0  0  0
   11.0251   -2.8555   20.7862 H   0  0  0  0  0  0  0  0  0  0  0  0
  1  2  1  0  0  0  0
  1  3  2  0  0  0  0
  1 15  1  0  0  0  0
  2  4  2  0  0  0  0
  2 16  1  0  0  0  0
  3  5  1  0  0  0  0
  3 17  1  0  0  0  0
  4  6  1  0  0  0  0
  4 18  1  0  0  0  0
  5  6  2  0  0  0  0
  5  8  1  0  0  0  0
  6 13  1  0  0  0  0
  7 14  1  0  0  0  0
  7 19  1  0  0  0  0
  7 20  1  0  0  0  0
  7 21  1  0  0  0  0
  8  9  1  0  0  0  0
  8 22  1  0  0  0  0
  8 23  1  0  0  0  0
  9 10  1  0  0  0  0
  9 24  1  0  0  0  0
  9 25  1  0  0  0  0
 10 14  1  0  0  0  0
 10 26  1  0  0  0  0
 11 14  2  0  0  0  0
 12 14  2  0  0  0  0
 13 27  1  0  0  0  0
M  END
>  <Chemgauss4 Score>
-4.78243064880371

>  <Number of Confs>
141

$$$$
