CHR-SOS-70e-12
 OpenBabel03242009303D

 50 52  0  0  0  0  0  0  0  0999 V2000
   11.2906   -4.9551   25.3109 C   0  0  0  0  0  0  0  0  0  0  0  0
    5.9138    1.7689   19.4828 C   0  0  0  0  0  0  0  0  0  0  0  0
    6.5257    1.1910   20.5896 C   0  0  0  0  0  0  0  0  0  0  0  0
   11.6018   -3.6454   24.9456 C   0  0  0  0  0  0  0  0  0  0  0  0
   10.0263   -5.2561   25.8176 C   0  0  0  0  0  0  0  0  0  0  0  0
    9.3846   -2.9377   25.5938 C   0  0  0  0  0  0  0  0  0  0  0  0
    6.2675    1.3003   18.2278 C   0  0  0  0  0  0  0  0  0  0  0  0
    7.7438   -0.2210   19.1135 C   0  0  0  0  0  0  0  0  0  0  0  0
    7.4594    0.1765   20.4100 C   0  0  0  0  0  0  0  0  0  0  0  0
   10.6489   -2.6367   25.0871 C   0  0  0  0  0  0  0  0  0  0  0  0
    9.0733   -4.2474   25.9590 C   0  0  0  0  0  0  0  0  0  0  0  0
    9.0475   -1.4493   21.4950 C   0  0  0  0  0  0  0  0  0  0  0  0
   12.7684    1.0575   22.8476 C   0  0  0  0  0  0  0  0  0  0  0  0
   11.5599    1.3778   23.7212 C   0  0  0  0  0  0  0  0  0  0  0  0
   13.1118   -0.4281   22.8857 C   0  0  0  0  0  0  0  0  0  0  0  0
   10.3515    0.5161   23.3503 C   0  0  0  0  0  0  0  0  0  0  0  0
   11.9084   -1.2940   22.5099 C   0  0  0  0  0  0  0  0  0  0  0  0
   10.6762   -0.9854   23.3759 C   0  0  0  0  0  0  0  0  0  0  0  0
    9.4690   -1.8008   22.9092 C   0  0  0  0  0  0  0  0  0  0  0  0
    7.1700    0.3167   18.0139 N   0  0  0  0  0  0  0  0  0  0  0  0
    7.7441   -4.3947   28.2648 N   0  0  0  0  0  0  0  0  0  0  0  0
    8.0990   -0.4307   21.5169 N   0  0  0  0  0  0  0  0  0  0  0  0
    9.5109   -2.0155   20.5105 O   0  0  0  0  0  0  0  0  0  0  0  0
    6.5531   -3.6171   26.1148 O   0  0  0  0  0  0  0  0  0  0  0  0
    7.2198   -6.0354   26.3490 O   0  0  0  0  0  0  0  0  0  0  0  0
   10.9541   -1.3536   24.7302 O   0  0  0  0  0  0  0  0  0  0  0  0
    7.4898   -4.6251   26.5910 S   0  0  0  0  0  0  0  0  0  0  0  0
   12.0327   -5.7403   25.2011 H   0  0  0  0  0  0  0  0  0  0  0  0
    5.1831    2.5612   19.5991 H   0  0  0  0  0  0  0  0  0  0  0  0
    6.2679    1.5385   21.5866 H   0  0  0  0  0  0  0  0  0  0  0  0
   12.5884   -3.4173   24.5518 H   0  0  0  0  0  0  0  0  0  0  0  0
    9.7938   -6.2798   26.0980 H   0  0  0  0  0  0  0  0  0  0  0  0
    8.6453   -2.1477   25.7024 H   0  0  0  0  0  0  0  0  0  0  0  0
    5.8194    1.7188   17.3327 H   0  0  0  0  0  0  0  0  0  0  0  0
    8.4636   -1.0081   18.9094 H   0  0  0  0  0  0  0  0  0  0  0  0
   12.5601    1.3572   21.8131 H   0  0  0  0  0  0  0  0  0  0  0  0
   13.6315    1.6440   23.1822 H   0  0  0  0  0  0  0  0  0  0  0  0
   11.8178    1.2193   24.7754 H   0  0  0  0  0  0  0  0  0  0  0  0
   11.3006    2.4373   23.6148 H   0  0  0  0  0  0  0  0  0  0  0  0
   13.9389   -0.6320   22.1961 H   0  0  0  0  0  0  0  0  0  0  0  0
   13.4630   -0.6978   23.8891 H   0  0  0  0  0  0  0  0  0  0  0  0
    9.5424    0.7386   24.0571 H   0  0  0  0  0  0  0  0  0  0  0  0
   10.0012    0.8057   22.3514 H   0  0  0  0  0  0  0  0  0  0  0  0
   11.6697   -1.1326   21.4510 H   0  0  0  0  0  0  0  0  0  0  0  0
   12.1950   -2.3471   22.6216 H   0  0  0  0  0  0  0  0  0  0  0  0
    8.6326   -1.6139   23.5864 H   0  0  0  0  0  0  0  0  0  0  0  0
    9.7211   -2.8627   22.9518 H   0  0  0  0  0  0  0  0  0  0  0  0
    7.3142   -3.5742   28.7090 H   0  0  0  0  0  0  0  0  0  0  0  0
    7.7713   -5.2264   28.8671 H   0  0  0  0  0  0  0  0  0  0  0  0
    7.8245   -0.0712   22.4288 H   0  0  0  0  0  0  0  0  0  0  0  0
  1  4  1  0  0  0  0
  1  5  2  0  0  0  0
  1 28  1  0  0  0  0
  2  3  2  0  0  0  0
  2  7  1  0  0  0  0
  2 29  1  0  0  0  0
  3  9  1  0  0  0  0
  3 30  1  0  0  0  0
  4 10  2  0  0  0  0
  4 31  1  0  0  0  0
  5 11  1  0  0  0  0
  5 32  1  0  0  0  0
  6 10  1  0  0  0  0
  6 11  2  0  0  0  0
  6 33  1  0  0  0  0
  7 20  2  0  0  0  0
  7 34  1  0  0  0  0
  8  9  2  0  0  0  0
  8 20  1  0  0  0  0
  8 35  1  0  0  0  0
  9 22  1  0  0  0  0
 10 26  1  0  0  0  0
 11 27  1  0  0  0  0
 12 19  1  0  0  0  0
 12 22  1  0  0  0  0
 12 23  2  0  0  0  0
 13 14  1  0  0  0  0
 13 15  1  0  0  0  0
 13 36  1  0  0  0  0
 13 37  1  0  0  0  0
 14 16  1  0  0  0  0
 14 38  1  0  0  0  0
 14 39  1  0  0  0  0
 15 17  1  0  0  0  0
 15 40  1  0  0  0  0
 15 41  1  0  0  0  0
 16 18  1  0  0  0  0
 16 42  1  0  0  0  0
 16 43  1  0  0  0  0
 17 18  1  0  0  0  0
 17 44  1  0  0  0  0
 17 45  1  0  0  0  0
 18 19  1  0  0  0  0
 18 26  1  0  0  0  0
 19 46  1  0  0  0  0
 19 47  1  0  0  0  0
 21 27  1  0  0  0  0
 21 48  1  0  0  0  0
 21 49  1  0  0  0  0
 22 50  1  0  0  0  0
 24 27  2  0  0  0  0
 25 27  2  0  0  0  0
M  END
>  <Chemgauss4 Score>
-6.31187629699707

>  <Number of Confs>
200

$$$$
