ANT-LOU-17a-1
 OpenBabel03242009303D

 36 37  0  0  0  0  0  0  0  0999 V2000
    6.2629   -0.0885   19.1709 C   0  0  0  0  0  0  0  0  0  0  0  0
    5.9588    1.3130   21.1151 C   0  0  0  0  0  0  0  0  0  0  0  0
    6.9471   -4.2988   25.1500 C   0  0  0  0  0  0  0  0  0  0  0  0
    9.3199   -3.8707   24.9971 C   0  0  0  0  0  0  0  0  0  0  0  0
    6.4629    0.1513   20.5303 C   0  0  0  0  0  0  0  0  0  0  0  0
    8.0054   -3.5051   24.7076 C   0  0  0  0  0  0  0  0  0  0  0  0
    5.5589    0.8334   18.3961 C   0  0  0  0  0  0  0  0  0  0  0  0
    5.2548    2.2350   20.3404 C   0  0  0  0  0  0  0  0  0  0  0  0
    7.2035   -5.4581   25.8822 C   0  0  0  0  0  0  0  0  0  0  0  0
    9.5763   -5.0301   25.7292 C   0  0  0  0  0  0  0  0  0  0  0  0
    5.0549    1.9951   18.9809 C   0  0  0  0  0  0  0  0  0  0  0  0
    8.5180   -5.8238   26.1717 C   0  0  0  0  0  0  0  0  0  0  0  0
    7.9435   -0.5159   22.4297 C   0  0  0  0  0  0  0  0  0  0  0  0
    8.5508   -1.7633   23.0008 C   0  0  0  0  0  0  0  0  0  0  0  0
    7.1674   -0.7709   21.3050 N   0  0  0  0  0  0  0  0  0  0  0  0
    7.7454   -2.3298   23.9658 N   0  0  0  0  0  0  0  0  0  0  0  0
    8.2088    0.5325   22.9938 O   0  0  0  0  0  0  0  0  0  0  0  0
    9.6412   -2.0929   22.5651 O   0  0  0  0  0  0  0  0  0  0  0  0
    5.3701    0.5878   17.0695 O   0  0  0  0  0  0  0  0  0  0  0  0
    4.7672    3.3659   20.9229 O   0  0  0  0  0  0  0  0  0  0  0  0
    6.1614   -6.2250   26.3086 O   0  0  0  0  0  0  0  0  0  0  0  0
   10.8644   -5.3770   26.0056 O   0  0  0  0  0  0  0  0  0  0  0  0
    4.3673    2.8970   18.2238 O   0  0  0  0  0  0  0  0  0  0  0  0
    8.7690   -6.9566   26.8880 O   0  0  0  0  0  0  0  0  0  0  0  0
    6.6530   -0.9933   18.7104 H   0  0  0  0  0  0  0  0  0  0  0  0
    6.1127    1.5049   22.1744 H   0  0  0  0  0  0  0  0  0  0  0  0
    5.9205   -4.0186   24.9260 H   0  0  0  0  0  0  0  0  0  0  0  0
   10.1484   -3.2549   24.6549 H   0  0  0  0  0  0  0  0  0  0  0  0
    7.1074   -1.7537   21.0165 H   0  0  0  0  0  0  0  0  0  0  0  0
    6.8654   -1.8627   24.1746 H   0  0  0  0  0  0  0  0  0  0  0  0
    5.7800   -0.2562   16.8233 H   0  0  0  0  0  0  0  0  0  0  0  0
    4.9909    3.3798   21.8667 H   0  0  0  0  0  0  0  0  0  0  0  0
    5.3198   -5.8341   26.0258 H   0  0  0  0  0  0  0  0  0  0  0  0
   11.4754   -4.7242   25.6292 H   0  0  0  0  0  0  0  0  0  0  0  0
    4.3137    2.5900   17.3056 H   0  0  0  0  0  0  0  0  0  0  0  0
    7.9363   -7.3952   27.1214 H   0  0  0  0  0  0  0  0  0  0  0  0
  1  5  1  0  0  0  0
  1  7  2  0  0  0  0
  1 25  1  0  0  0  0
  2  5  2  0  0  0  0
  2  8  1  0  0  0  0
  2 26  1  0  0  0  0
  3  6  1  0  0  0  0
  3  9  2  0  0  0  0
  3 27  1  0  0  0  0
  4  6  2  0  0  0  0
  4 10  1  0  0  0  0
  4 28  1  0  0  0  0
  5 15  1  0  0  0  0
  6 16  1  0  0  0  0
  7 11  1  0  0  0  0
  7 19  1  0  0  0  0
  8 11  2  0  0  0  0
  8 20  1  0  0  0  0
  9 12  1  0  0  0  0
  9 21  1  0  0  0  0
 10 12  2  0  0  0  0
 10 22  1  0  0  0  0
 11 23  1  0  0  0  0
 12 24  1  0  0  0  0
 13 14  1  0  0  0  0
 13 15  1  0  0  0  0
 13 17  2  0  0  0  0
 14 16  1  0  0  0  0
 14 18  2  0  0  0  0
 15 29  1  0  0  0  0
 16 30  1  0  0  0  0
 19 31  1  0  0  0  0
 20 32  1  0  0  0  0
 21 33  1  0  0  0  0
 22 34  1  0  0  0  0
 23 35  1  0  0  0  0
 24 36  1  0  0  0  0
M  END
>  <Chemgauss4 Score>
-6.29254102706909

>  <Number of Confs>
13

$$$$
