DAR-DIA-43a-9
 OpenBabel03242009303D

 36 38  0  0  1  0  0  0  0  0999 V2000
    9.3705   -2.4900   28.2111 C   0  0  0  0  0  0  0  0  0  0  0  0
    9.5555   -2.5540   26.8301 C   0  0  0  0  0  0  0  0  0  0  0  0
    8.7654   -3.5518   28.8837 C   0  0  0  0  0  0  0  0  0  0  0  0
    8.5302   -4.7414   26.7941 C   0  0  0  0  0  0  0  0  0  0  0  0
   13.5961   -0.6987   22.5420 C   0  0  0  0  0  0  0  0  0  0  0  0
   13.1731   -0.0475   24.4965 C   0  0  0  0  0  0  0  0  0  0  0  0
    9.1353   -3.6796   26.1216 C   0  0  0  0  0  0  0  0  0  0  0  0
    8.3452   -4.6774   28.1752 C   0  0  0  0  0  0  0  0  0  0  0  0
   12.2838   -1.0055   22.8032 C   0  0  0  0  0  0  0  0  0  0  0  0
   10.5210   -3.0136   24.0645 C   0  0  0  0  0  0  0  0  0  0  0  0
   10.2377   -2.4311   22.8930 C   0  0  0  0  0  0  0  0  0  0  0  0
    7.4129   -2.0735   24.4408 C   0  0  0  0  0  0  0  0  0  0  0  0
    8.8153   -2.6673   22.4835 C   0  0  0  0  0  0  0  0  0  0  0  0
    9.3352   -3.7478   24.6233 C   0  0  2  0  0  0  0  0  0  0  0  0
    8.1680   -3.1927   23.7738 C   0  0  1  0  0  0  0  0  0  0  0  0
   11.1713   -1.6657   22.0276 C   0  0  0  0  0  0  0  0  0  0  0  0
   14.1607   -0.0847   23.6307 N   0  0  0  0  0  0  0  0  0  0  0  0
    6.3334   -2.4962   25.1799 N   0  0  0  0  0  0  0  0  0  0  0  0
    7.7578   -0.8992   24.3345 O   0  0  0  0  0  0  0  0  0  0  0  0
   11.9994   -0.5875   24.0681 O   0  0  0  0  0  0  0  0  0  0  0  0
    7.5977   -5.9865   29.0053 Cl  0  0  0  0  0  0  0  0  0  0  0  0
    9.6977   -1.6133   28.7625 H   0  0  0  0  0  0  0  0  0  0  0  0
   10.0278   -1.7220   26.3143 H   0  0  0  0  0  0  0  0  0  0  0  0
    8.6274   -3.4880   29.9602 H   0  0  0  0  0  0  0  0  0  0  0  0
    8.2048   -5.6170   26.2372 H   0  0  0  0  0  0  0  0  0  0  0  0
   14.1601   -0.8837   21.6398 H   0  0  0  0  0  0  0  0  0  0  0  0
   13.1804    0.3563   25.4978 H   0  0  0  0  0  0  0  0  0  0  0  0
   11.4964   -2.9989   24.5319 H   0  0  0  0  0  0  0  0  0  0  0  0
    8.3420   -1.7485   22.1214 H   0  0  0  0  0  0  0  0  0  0  0  0
    8.7785   -3.4212   21.6893 H   0  0  0  0  0  0  0  0  0  0  0  0
    9.4637   -4.8334   24.3738 H   0  0  0  0  0  0  0  0  0  0  0  0
    7.4337   -3.9787   23.5540 H   0  0  0  0  0  0  0  0  0  0  0  0
   10.6153   -0.8986   21.4711 H   0  0  0  0  0  0  0  0  0  0  0  0
   11.5955   -2.3331   21.2654 H   0  0  0  0  0  0  0  0  0  0  0  0
    6.1308   -3.4896   25.2218 H   0  0  0  0  0  0  0  0  0  0  0  0
    5.7311   -1.8546   25.6854 H   0  0  0  0  0  0  0  0  0  0  0  0
  1  2  2  0  0  0  0
  1  3  1  0  0  0  0
  1 22  1  0  0  0  0
  2  7  1  0  0  0  0
  2 23  1  0  0  0  0
  3  8  2  0  0  0  0
  3 24  1  0  0  0  0
  4  7  2  0  0  0  0
  4  8  1  0  0  0  0
  4 25  1  0  0  0  0
  5  9  2  0  0  0  0
  5 17  1  0  0  0  0
  5 26  1  0  0  0  0
  6 17  2  0  0  0  0
  6 20  1  0  0  0  0
  6 27  1  0  0  0  0
  7 14  1  0  0  0  0
  8 21  1  0  0  0  0
  9 16  1  0  0  0  0
  9 20  1  0  0  0  0
 10 11  2  0  0  0  0
 10 14  1  0  0  0  0
 10 28  1  0  0  0  0
 11 13  1  0  0  0  0
 11 16  1  0  0  0  0
 12 15  1  0  0  0  0
 12 18  1  0  0  0  0
 12 19  2  0  0  0  0
 13 15  1  0  0  0  0
 13 29  1  0  0  0  0
 13 30  1  0  0  0  0
 14 15  1  0  0  0  0
 14 31  1  6  0  0  0
 15 32  1  6  0  0  0
 16 33  1  0  0  0  0
 16 34  1  0  0  0  0
 18 35  1  0  0  0  0
 18 36  1  0  0  0  0
M  END
>  <Chemgauss4 Score>
-5.71691417694092

>  <Number of Confs>
200

$$$$
