SAL-INS-1c7-8
 OpenBabel03242009303D

 43 45  0  0  1  0  0  0  0  0999 V2000
    5.3774   -5.5701   22.3326 C   0  0  0  0  0  0  0  0  0  0  0  0
    5.2591   -5.6367   23.7208 C   0  0  0  0  0  0  0  0  0  0  0  0
    6.6402   -5.5457   21.7406 C   0  0  0  0  0  0  0  0  0  0  0  0
    6.4036   -5.6787   24.5171 C   0  0  0  0  0  0  0  0  0  0  0  0
    7.7847   -5.5877   22.5368 C   0  0  0  0  0  0  0  0  0  0  0  0
    8.9145   -3.0250   27.4801 C   0  0  0  0  0  0  0  0  0  0  0  0
    8.4560   -3.7530   28.5780 C   0  0  0  0  0  0  0  0  0  0  0  0
    8.2989   -5.7316   27.2004 C   0  0  0  0  0  0  0  0  0  0  0  0
    7.6664   -5.6542   23.9251 C   0  0  0  0  0  0  0  0  0  0  0  0
    8.7574   -5.0035   26.1025 C   0  0  0  0  0  0  0  0  0  0  0  0
    9.0652   -3.6502   26.2423 C   0  0  0  0  0  0  0  0  0  0  0  0
    8.1482   -5.1063   28.4382 C   0  0  0  0  0  0  0  0  0  0  0  0
   11.2590   -2.4848   23.4161 C   0  0  0  0  0  0  0  0  0  0  0  0
   11.6378   -1.2668   23.0162 C   0  0  0  0  0  0  0  0  0  0  0  0
    8.5470   -2.2300   24.3169 C   0  0  0  0  0  0  0  0  0  0  0  0
   11.4876   -1.4339   25.6012 C   0  0  0  0  0  0  0  0  0  0  0  0
   10.9709   -2.6829   24.8782 C   0  0  1  0  0  0  0  0  0  0  0  0
    8.9094   -5.6995   24.7890 C   0  0  0  0  0  0  0  0  0  0  0  0
    7.2367   -1.9793   25.0422 C   0  0  0  0  0  0  0  0  0  0  0  0
    9.5427   -2.8772   25.1157 N   0  0  0  0  0  0  0  0  0  0  0  0
    8.6690   -1.9122   23.1312 O   0  0  0  0  0  0  0  0  0  0  0  0
   12.9855    0.4243   24.4727 O   0  0  0  0  0  0  0  0  0  0  0  0
   10.4667    0.6436   24.3363 O   0  0  0  0  0  0  0  0  0  0  0  0
    7.7084   -5.8054   29.4927 F   0  0  0  0  0  0  0  0  0  0  0  0
   11.6686   -0.1662   24.3470 S   0  0  0  0  0  0  0  0  0  0  0  0
    6.0737   -1.2003   23.9485 Cl  0  0  0  0  0  0  0  0  0  0  0  0
    4.4861   -5.5388   21.7127 H   0  0  0  0  0  0  0  0  0  0  0  0
    4.2759   -5.6568   24.1819 H   0  0  0  0  0  0  0  0  0  0  0  0
    6.7326   -5.4950   20.6598 H   0  0  0  0  0  0  0  0  0  0  0  0
    6.3018   -5.7302   25.5979 H   0  0  0  0  0  0  0  0  0  0  0  0
    8.7644   -5.5681   22.0668 H   0  0  0  0  0  0  0  0  0  0  0  0
    9.1509   -1.9707   27.6014 H   0  0  0  0  0  0  0  0  0  0  0  0
    8.3384   -3.2665   29.5418 H   0  0  0  0  0  0  0  0  0  0  0  0
    8.0576   -6.7868   27.1029 H   0  0  0  0  0  0  0  0  0  0  0  0
   11.1671   -3.3076   22.7168 H   0  0  0  0  0  0  0  0  0  0  0  0
   11.8784   -0.9826   22.0021 H   0  0  0  0  0  0  0  0  0  0  0  0
   10.8314   -1.0742   26.3981 H   0  0  0  0  0  0  0  0  0  0  0  0
   12.4836   -1.6224   26.0165 H   0  0  0  0  0  0  0  0  0  0  0  0
   11.4801   -3.5797   25.2762 H   0  0  0  0  0  0  0  0  0  0  0  0
    9.2007   -6.7523   24.9437 H   0  0  0  0  0  0  0  0  0  0  0  0
    9.7553   -5.2725   24.2240 H   0  0  0  0  0  0  0  0  0  0  0  0
    6.8087   -2.9281   25.3752 H   0  0  0  0  0  0  0  0  0  0  0  0
    7.3766   -1.2999   25.8863 H   0  0  0  0  0  0  0  0  0  0  0  0
  1  2  1  0  0  0  0
  1  3  2  0  0  0  0
  1 27  1  0  0  0  0
  2  4  2  0  0  0  0
  2 28  1  0  0  0  0
  3  5  1  0  0  0  0
  3 29  1  0  0  0  0
  4  9  1  0  0  0  0
  4 30  1  0  0  0  0
  5  9  2  0  0  0  0
  5 31  1  0  0  0  0
  6  7  2  0  0  0  0
  6 11  1  0  0  0  0
  6 32  1  0  0  0  0
  7 12  1  0  0  0  0
  7 33  1  0  0  0  0
  8 10  1  0  0  0  0
  8 12  2  0  0  0  0
  8 34  1  0  0  0  0
  9 18  1  0  0  0  0
 10 11  2  0  0  0  0
 10 18  1  0  0  0  0
 11 20  1  0  0  0  0
 12 24  1  0  0  0  0
 13 14  2  0  0  0  0
 13 17  1  0  0  0  0
 13 35  1  0  0  0  0
 14 25  1  0  0  0  0
 14 36  1  0  0  0  0
 15 19  1  0  0  0  0
 15 20  1  0  0  0  0
 15 21  2  0  0  0  0
 16 17  1  0  0  0  0
 16 25  1  0  0  0  0
 16 37  1  0  0  0  0
 16 38  1  0  0  0  0
 17 20  1  0  0  0  0
 17 39  1  1  0  0  0
 18 40  1  0  0  0  0
 18 41  1  0  0  0  0
 19 26  1  0  0  0  0
 19 42  1  0  0  0  0
 19 43  1  0  0  0  0
 22 25  2  0  0  0  0
 23 25  2  0  0  0  0
M  END
>  <Chemgauss4 Score>
-6.14961004257202

>  <Number of Confs>
188

$$$$
