DUN-NEW-f8c-2
 OpenBabel03242009303D

 50 52  0  0  1  0  0  0  0  0999 V2000
    5.5765   -5.0953   21.9803 C   0  0  0  0  0  0  0  0  0  0  0  0
    5.6338   -5.9892   23.0495 C   0  0  0  0  0  0  0  0  0  0  0  0
    6.0647   -3.7971   22.1295 C   0  0  0  0  0  0  0  0  0  0  0  0
    6.1793   -5.5849   24.2680 C   0  0  0  0  0  0  0  0  0  0  0  0
    6.6101   -3.3929   23.3480 C   0  0  0  0  0  0  0  0  0  0  0  0
    6.6674   -4.2868   24.4173 C   0  0  0  0  0  0  0  0  0  0  0  0
    8.7608   -5.6536   26.2350 C   0  0  0  0  0  0  0  0  0  0  0  0
   12.3723   -0.2023   23.4754 C   0  0  0  0  0  0  0  0  0  0  0  0
    7.2742   -3.4729   27.9526 C   0  0  0  0  0  0  0  0  0  0  0  0
    8.6963   -3.4665   27.4093 C   0  0  0  0  0  0  0  0  0  0  0  0
    6.4105   -3.3084   26.7063 C   0  0  0  0  0  0  0  0  0  0  0  0
   10.8633   -2.1876   22.9874 C   0  0  0  0  0  0  0  0  0  0  0  0
   10.3753   -0.6625   24.8583 C   0  0  0  0  0  0  0  0  0  0  0  0
    9.3755   -2.1842   22.6314 C   0  0  0  0  0  0  0  0  0  0  0  0
    8.8991   -0.6834   24.4632 C   0  0  0  0  0  0  0  0  0  0  0  0
    8.5751   -4.1781   26.0608 C   0  0  2  0  0  0  0  0  0  0  0  0
    7.1279   -1.9899   23.4804 C   0  0  0  0  0  0  0  0  0  0  0  0
   12.8870   -0.1859   22.0581 C   0  0  0  0  0  0  0  0  0  0  0  0
    7.2043   -3.9034   25.6316 N   0  0  0  0  0  0  0  0  0  0  0  0
   11.2347   -0.9713   23.7165 N   0  0  0  0  0  0  0  0  0  0  0  0
    8.5484   -1.9613   23.8264 N   0  0  0  0  0  0  0  0  0  0  0  0
   10.0668   -6.0662   26.1154 N   0  0  0  0  0  0  0  0  0  0  0  0
    7.8203   -6.4056   26.4790 O   0  0  0  0  0  0  0  0  0  0  0  0
   12.9617    0.4516   24.3395 O   0  0  0  0  0  0  0  0  0  0  0  0
   14.0596   -1.4924   21.9329 Cl  0  0  0  0  0  0  0  0  0  0  0  0
    5.1518   -5.4102   21.0316 H   0  0  0  0  0  0  0  0  0  0  0  0
    5.2537   -6.9999   22.9332 H   0  0  0  0  0  0  0  0  0  0  0  0
    6.0153   -3.1084   21.2902 H   0  0  0  0  0  0  0  0  0  0  0  0
    6.2186   -6.2903   25.0942 H   0  0  0  0  0  0  0  0  0  0  0  0
    7.0575   -4.4325   28.4366 H   0  0  0  0  0  0  0  0  0  0  0  0
    7.1067   -2.6764   28.6833 H   0  0  0  0  0  0  0  0  0  0  0  0
    9.0271   -2.4321   27.2567 H   0  0  0  0  0  0  0  0  0  0  0  0
    9.3917   -3.9554   28.0986 H   0  0  0  0  0  0  0  0  0  0  0  0
    5.4384   -3.8085   26.8105 H   0  0  0  0  0  0  0  0  0  0  0  0
    6.2314   -2.2409   26.5100 H   0  0  0  0  0  0  0  0  0  0  0  0
   11.0991   -3.0366   23.6410 H   0  0  0  0  0  0  0  0  0  0  0  0
   11.4506   -2.3091   22.0752 H   0  0  0  0  0  0  0  0  0  0  0  0
   10.6305    0.3140   25.2826 H   0  0  0  0  0  0  0  0  0  0  0  0
   10.5785   -1.4161   25.6292 H   0  0  0  0  0  0  0  0  0  0  0  0
    9.1815   -1.4172   21.8698 H   0  0  0  0  0  0  0  0  0  0  0  0
    9.1278   -3.1557   22.1869 H   0  0  0  0  0  0  0  0  0  0  0  0
    8.2997   -0.5461   25.3713 H   0  0  0  0  0  0  0  0  0  0  0  0
    8.6825    0.1624   23.7971 H   0  0  0  0  0  0  0  0  0  0  0  0
    9.3417   -3.8131   25.3640 H   0  0  0  0  0  0  0  0  0  0  0  0
    6.9983   -1.4403   22.5417 H   0  0  0  0  0  0  0  0  0  0  0  0
    6.5833   -1.4415   24.2562 H   0  0  0  0  0  0  0  0  0  0  0  0
   13.3694    0.7665   21.8705 H   0  0  0  0  0  0  0  0  0  0  0  0
   12.0588   -0.3627   21.3815 H   0  0  0  0  0  0  0  0  0  0  0  0
   10.7816   -5.3713   25.9257 H   0  0  0  0  0  0  0  0  0  0  0  0
   10.3448   -7.0377   26.2093 H   0  0  0  0  0  0  0  0  0  0  0  0
  1  2  1  0  0  0  0
  1  3  2  0  0  0  0
  1 26  1  0  0  0  0
  2  4  2  0  0  0  0
  2 27  1  0  0  0  0
  3  5  1  0  0  0  0
  3 28  1  0  0  0  0
  4  6  1  0  0  0  0
  4 29  1  0  0  0  0
  5  6  2  0  0  0  0
  5 17  1  0  0  0  0
  6 19  1  0  0  0  0
  7 16  1  0  0  0  0
  7 22  1  0  0  0  0
  7 23  2  0  0  0  0
  8 18  1  0  0  0  0
  8 20  1  0  0  0  0
  8 24  2  0  0  0  0
  9 10  1  0  0  0  0
  9 11  1  0  0  0  0
  9 30  1  0  0  0  0
  9 31  1  0  0  0  0
 10 16  1  0  0  0  0
 10 32  1  0  0  0  0
 10 33  1  0  0  0  0
 11 19  1  0  0  0  0
 11 34  1  0  0  0  0
 11 35  1  0  0  0  0
 12 14  1  0  0  0  0
 12 20  1  0  0  0  0
 12 36  1  0  0  0  0
 12 37  1  0  0  0  0
 13 15  1  0  0  0  0
 13 20  1  0  0  0  0
 13 38  1  0  0  0  0
 13 39  1  0  0  0  0
 14 21  1  0  0  0  0
 14 40  1  0  0  0  0
 14 41  1  0  0  0  0
 15 21  1  0  0  0  0
 15 42  1  0  0  0  0
 15 43  1  0  0  0  0
 16 19  1  0  0  0  0
 16 44  1  6  0  0  0
 17 21  1  0  0  0  0
 17 45  1  0  0  0  0
 17 46  1  0  0  0  0
 18 25  1  0  0  0  0
 18 47  1  0  0  0  0
 18 48  1  0  0  0  0
 22 49  1  0  0  0  0
 22 50  1  0  0  0  0
M  END
>  <Chemgauss4 Score>
-6.28873300552368

>  <Number of Confs>
179

$$$$
