ANN-UNI-263-1
 OpenBabel03242009303D

 29 30  0  0  0  0  0  0  0  0999 V2000
   10.5104   -3.8912   25.5284 C   0  0  0  0  0  0  0  0  0  0  0  0
    9.6132   -4.8002   26.0781 C   0  0  0  0  0  0  0  0  0  0  0  0
    8.9108   -3.4167   23.8334 C   0  0  0  0  0  0  0  0  0  0  0  0
   10.1602   -3.1822   24.3847 C   0  0  0  0  0  0  0  0  0  0  0  0
    8.3882   -4.9620   25.4511 C   0  0  0  0  0  0  0  0  0  0  0  0
   12.8625   -1.5842   22.2640 C   0  0  0  0  0  0  0  0  0  0  0  0
   12.8165   -0.3024   22.6467 C   0  0  0  0  0  0  0  0  0  0  0  0
   11.9791   -2.5708   22.8362 C   0  0  0  0  0  0  0  0  0  0  0  0
   11.0892   -2.2112   23.7776 C   0  0  0  0  0  0  0  0  0  0  0  0
   11.8345    0.1150   23.6868 C   0  0  0  0  0  0  0  0  0  0  0  0
    5.7705   -6.5083   24.4504 C   0  0  0  0  0  0  0  0  0  0  0  0
    6.0830   -5.8660   25.7590 C   0  0  0  0  0  0  0  0  0  0  0  0
    8.0126   -4.2914   24.3390 N   0  0  0  0  0  0  0  0  0  0  0  0
   11.0244   -0.8924   24.1863 N   0  0  0  0  0  0  0  0  0  0  0  0
    7.4847   -5.8917   26.0233 N   0  0  0  0  0  0  0  0  0  0  0  0
   11.7789    1.2867   24.0515 O   0  0  0  0  0  0  0  0  0  0  0  0
   11.4782   -3.7458   26.0016 H   0  0  0  0  0  0  0  0  0  0  0  0
    9.8781   -5.3578   26.9705 H   0  0  0  0  0  0  0  0  0  0  0  0
    8.5772   -2.8954   22.9407 H   0  0  0  0  0  0  0  0  0  0  0  0
   13.5693   -1.9121   21.5097 H   0  0  0  0  0  0  0  0  0  0  0  0
   13.4734    0.4478   22.2234 H   0  0  0  0  0  0  0  0  0  0  0  0
   12.0662   -3.5927   22.4820 H   0  0  0  0  0  0  0  0  0  0  0  0
    6.1097   -7.5546   24.4646 H   0  0  0  0  0  0  0  0  0  0  0  0
    4.6848   -6.4772   24.2769 H   0  0  0  0  0  0  0  0  0  0  0  0
    6.2864   -5.9666   23.6438 H   0  0  0  0  0  0  0  0  0  0  0  0
    5.7410   -4.8207   25.7367 H   0  0  0  0  0  0  0  0  0  0  0  0
    5.5568   -6.4070   26.5592 H   0  0  0  0  0  0  0  0  0  0  0  0
   10.3406   -0.6464   24.8969 H   0  0  0  0  0  0  0  0  0  0  0  0
    7.8767   -6.5798   26.6332 H   0  0  0  0  0  0  0  0  0  0  0  0
  1  2  2  0  0  0  0
  1  4  1  0  0  0  0
  1 17  1  0  0  0  0
  2  5  1  0  0  0  0
  2 18  1  0  0  0  0
  3  4  2  0  0  0  0
  3 13  1  0  0  0  0
  3 19  1  0  0  0  0
  4  9  1  0  0  0  0
  5 13  2  0  0  0  0
  5 15  1  0  0  0  0
  6  7  2  0  0  0  0
  6  8  1  0  0  0  0
  6 20  1  0  0  0  0
  7 10  1  0  0  0  0
  7 21  1  0  0  0  0
  8  9  2  0  0  0  0
  8 22  1  0  0  0  0
  9 14  1  0  0  0  0
 10 14  1  0  0  0  0
 10 16  2  0  0  0  0
 11 12  1  0  0  0  0
 11 23  1  0  0  0  0
 11 24  1  0  0  0  0
 11 25  1  0  0  0  0
 12 15  1  0  0  0  0
 12 26  1  0  0  0  0
 12 27  1  0  0  0  0
 14 28  1  0  0  0  0
 15 29  1  0  0  0  0
M  END
>  <Chemgauss4 Score>
-6.33476591110229

>  <Number of Confs>
33

$$$$
