CHR-SOS-709-16
 OpenBabel03242009303D

 36 38  0  0  0  0  0  0  0  0999 V2000
    5.7796   -4.2249   22.7507 C   0  0  0  0  0  0  0  0  0  0  0  0
    6.6207   -3.6037   21.8275 C   0  0  0  0  0  0  0  0  0  0  0  0
    5.8315   -3.8615   24.0964 C   0  0  0  0  0  0  0  0  0  0  0  0
    8.4859   -6.3548   27.6079 C   0  0  0  0  0  0  0  0  0  0  0  0
    8.9764   -5.5180   26.6116 C   0  0  0  0  0  0  0  0  0  0  0  0
    7.5139   -2.6192   22.2501 C   0  0  0  0  0  0  0  0  0  0  0  0
    6.7247   -2.8770   24.5189 C   0  0  0  0  0  0  0  0  0  0  0  0
   10.2357   -0.2704   22.8091 C   0  0  0  0  0  0  0  0  0  0  0  0
   11.5413   -0.3138   22.3202 C   0  0  0  0  0  0  0  0  0  0  0  0
   11.8365   -2.5013   23.3025 C   0  0  0  0  0  0  0  0  0  0  0  0
    8.1605   -5.7874   28.8294 C   0  0  0  0  0  0  0  0  0  0  0  0
    8.7703   -3.6896   28.1185 C   0  0  0  0  0  0  0  0  0  0  0  0
   10.5308   -2.4578   23.7915 C   0  0  0  0  0  0  0  0  0  0  0  0
    9.1244   -4.1586   26.8637 C   0  0  0  0  0  0  0  0  0  0  0  0
    7.5659   -2.2558   23.5958 C   0  0  0  0  0  0  0  0  0  0  0  0
    9.7305   -1.3424   23.5448 C   0  0  0  0  0  0  0  0  0  0  0  0
   12.3417   -1.4292   22.5668 C   0  0  0  0  0  0  0  0  0  0  0  0
   10.0233   -3.5864   24.5593 C   0  0  0  0  0  0  0  0  0  0  0  0
    8.2906   -4.4717   29.1114 N   0  0  0  0  0  0  0  0  0  0  0  0
    9.6221   -3.2806   25.8681 N   0  0  0  0  0  0  0  0  0  0  0  0
    9.9890   -4.7301   24.0871 O   0  0  0  0  0  0  0  0  0  0  0  0
    8.4530   -1.2802   24.0158 O   0  0  0  0  0  0  0  0  0  0  0  0
   13.9520   -1.4836   21.9618 Cl  0  0  0  0  0  0  0  0  0  0  0  0
    5.0836   -4.9911   22.4219 H   0  0  0  0  0  0  0  0  0  0  0  0
    6.5805   -3.8867   20.7796 H   0  0  0  0  0  0  0  0  0  0  0  0
    5.1761   -4.3456   24.8146 H   0  0  0  0  0  0  0  0  0  0  0  0
    8.3622   -7.4175   27.4336 H   0  0  0  0  0  0  0  0  0  0  0  0
    9.2399   -5.9352   25.6433 H   0  0  0  0  0  0  0  0  0  0  0  0
    8.1674   -2.1401   21.5261 H   0  0  0  0  0  0  0  0  0  0  0  0
    6.7621   -2.5992   25.5688 H   0  0  0  0  0  0  0  0  0  0  0  0
    9.6171    0.6015   22.6142 H   0  0  0  0  0  0  0  0  0  0  0  0
   11.9211    0.5283   21.7474 H   0  0  0  0  0  0  0  0  0  0  0  0
   12.4593   -3.3719   23.4969 H   0  0  0  0  0  0  0  0  0  0  0  0
    7.7748   -6.3976   29.6394 H   0  0  0  0  0  0  0  0  0  0  0  0
    8.8631   -2.6384   28.3751 H   0  0  0  0  0  0  0  0  0  0  0  0
    9.6980   -2.3029   26.1376 H   0  0  0  0  0  0  0  0  0  0  0  0
  1  2  1  0  0  0  0
  1  3  2  0  0  0  0
  1 24  1  0  0  0  0
  2  6  2  0  0  0  0
  2 25  1  0  0  0  0
  3  7  1  0  0  0  0
  3 26  1  0  0  0  0
  4  5  2  0  0  0  0
  4 11  1  0  0  0  0
  4 27  1  0  0  0  0
  5 14  1  0  0  0  0
  5 28  1  0  0  0  0
  6 15  1  0  0  0  0
  6 29  1  0  0  0  0
  7 15  2  0  0  0  0
  7 30  1  0  0  0  0
  8  9  2  0  0  0  0
  8 16  1  0  0  0  0
  8 31  1  0  0  0  0
  9 17  1  0  0  0  0
  9 32  1  0  0  0  0
 10 13  1  0  0  0  0
 10 17  2  0  0  0  0
 10 33  1  0  0  0  0
 11 19  2  0  0  0  0
 11 34  1  0  0  0  0
 12 14  2  0  0  0  0
 12 19  1  0  0  0  0
 12 35  1  0  0  0  0
 13 16  2  0  0  0  0
 13 18  1  0  0  0  0
 14 20  1  0  0  0  0
 15 22  1  0  0  0  0
 16 22  1  0  0  0  0
 17 23  1  0  0  0  0
 18 20  1  0  0  0  0
 18 21  2  0  0  0  0
 20 36  1  0  0  0  0
M  END
>  <Chemgauss4 Score>
-6.17829990386963

>  <Number of Confs>
120

$$$$
