JOH-MSK-a63-4
 OpenBabel03242009303D

 30 31  0  0  0  0  0  0  0  0999 V2000
   10.8864   -2.5714   23.4636 C   0  0  0  0  0  0  0  0  0  0  0  0
   10.7265   -1.2180   23.7745 C   0  0  0  0  0  0  0  0  0  0  0  0
    9.9299   -1.7644   26.0025 C   0  0  0  0  0  0  0  0  0  0  0  0
   10.1904   -5.3910   25.6273 C   0  0  0  0  0  0  0  0  0  0  0  0
   10.0829   -3.1347   25.7119 C   0  0  0  0  0  0  0  0  0  0  0  0
    9.8563   -4.3345   26.4428 C   0  0  0  0  0  0  0  0  0  0  0  0
   10.5567   -3.5058   24.4517 C   0  0  0  0  0  0  0  0  0  0  0  0
   10.2558   -0.8185   25.0237 C   0  0  0  0  0  0  0  0  0  0  0  0
    6.6861   -4.9510   25.8980 C   0  0  0  0  0  0  0  0  0  0  0  0
    5.8901   -6.0714   25.3152 C   0  0  0  0  0  0  0  0  0  0  0  0
    9.3545   -4.4389   27.8277 C   0  0  0  0  0  0  0  0  0  0  0  0
    7.8405   -4.1964   27.9668 C   0  0  0  0  0  0  0  0  0  0  0  0
   10.6119   -4.8812   24.4286 N   0  0  0  0  0  0  0  0  0  0  0  0
    7.0677   -5.1486   27.2153 N   0  0  0  0  0  0  0  0  0  0  0  0
    6.9437   -3.9708   25.2092 O   0  0  0  0  0  0  0  0  0  0  0  0
   10.1111    0.5087   25.2979 O   0  0  0  0  0  0  0  0  0  0  0  0
   11.2525   -2.8813   22.4905 H   0  0  0  0  0  0  0  0  0  0  0  0
   10.9744   -0.4709   23.0240 H   0  0  0  0  0  0  0  0  0  0  0  0
    9.5641   -1.4432   26.9740 H   0  0  0  0  0  0  0  0  0  0  0  0
   10.1663   -6.4594   25.7911 H   0  0  0  0  0  0  0  0  0  0  0  0
    4.8066   -5.9408   25.4669 H   0  0  0  0  0  0  0  0  0  0  0  0
    6.0230   -6.1588   24.2249 H   0  0  0  0  0  0  0  0  0  0  0  0
    6.1203   -7.0714   25.7161 H   0  0  0  0  0  0  0  0  0  0  0  0
    9.8760   -3.7083   28.4773 H   0  0  0  0  0  0  0  0  0  0  0  0
    9.5966   -5.4260   28.2711 H   0  0  0  0  0  0  0  0  0  0  0  0
    7.5229   -4.2855   29.0105 H   0  0  0  0  0  0  0  0  0  0  0  0
    7.5691   -3.1968   27.6116 H   0  0  0  0  0  0  0  0  0  0  0  0
   10.9188   -5.4338   23.6400 H   0  0  0  0  0  0  0  0  0  0  0  0
    6.7863   -6.0130   27.6753 H   0  0  0  0  0  0  0  0  0  0  0  0
    9.7767    0.6293   26.2003 H   0  0  0  0  0  0  0  0  0  0  0  0
  1  2  2  0  0  0  0
  1  7  1  0  0  0  0
  1 17  1  0  0  0  0
  2  8  1  0  0  0  0
  2 18  1  0  0  0  0
  3  5  1  0  0  0  0
  3  8  2  0  0  0  0
  3 19  1  0  0  0  0
  4  6  2  0  0  0  0
  4 13  1  0  0  0  0
  4 20  1  0  0  0  0
  5  6  1  0  0  0  0
  5  7  2  0  0  0  0
  6 11  1  0  0  0  0
  7 13  1  0  0  0  0
  8 16  1  0  0  0  0
  9 10  1  0  0  0  0
  9 14  1  0  0  0  0
  9 15  2  0  0  0  0
 10 21  1  0  0  0  0
 10 22  1  0  0  0  0
 10 23  1  0  0  0  0
 11 12  1  0  0  0  0
 11 24  1  0  0  0  0
 11 25  1  0  0  0  0
 12 14  1  0  0  0  0
 12 26  1  0  0  0  0
 12 27  1  0  0  0  0
 13 28  1  0  0  0  0
 14 29  1  0  0  0  0
 16 30  1  0  0  0  0
M  END
>  <Chemgauss4 Score>
-5.69507741928101

>  <Number of Confs>
38

$$$$
