CHR-SOS-597-4
 OpenBabel03242009303D

 46 48  0  0  0  0  0  0  0  0999 V2000
   13.8037   -1.3851   22.0322 C   0  0  0  0  0  0  0  0  0  0  0  0
   12.5419   -1.8350   22.4044 C   0  0  0  0  0  0  0  0  0  0  0  0
   14.3088   -0.2660   22.6743 C   0  0  0  0  0  0  0  0  0  0  0  0
   12.4268   -0.0525   23.9747 C   0  0  0  0  0  0  0  0  0  0  0  0
    8.6827   -3.8492   28.2765 C   0  0  0  0  0  0  0  0  0  0  0  0
   11.8335   -1.1615   23.3933 C   0  0  0  0  0  0  0  0  0  0  0  0
    9.1143   -3.4208   27.0386 C   0  0  0  0  0  0  0  0  0  0  0  0
    8.7116   -1.6911   28.6660 C   0  0  0  0  0  0  0  0  0  0  0  0
    9.8287   -2.6829   23.3049 C   0  0  0  0  0  0  0  0  0  0  0  0
    5.9575   -5.4950   23.5680 C   0  0  0  0  0  0  0  0  0  0  0  0
    5.7844   -4.3126   24.5148 C   0  0  0  0  0  0  0  0  0  0  0  0
    7.2838   -5.4335   22.8186 C   0  0  0  0  0  0  0  0  0  0  0  0
    6.9664   -4.1799   25.4750 C   0  0  0  0  0  0  0  0  0  0  0  0
    8.4682   -5.3027   23.7760 C   0  0  0  0  0  0  0  0  0  0  0  0
    8.3352   -4.1179   24.7596 C   0  0  0  0  0  0  0  0  0  0  0  0
    8.5786   -0.3933   29.3636 C   0  0  0  0  0  0  0  0  0  0  0  0
    9.4550   -4.2138   25.8128 C   0  0  0  0  0  0  0  0  0  0  0  0
    8.4975   -2.7773   24.0173 C   0  0  0  0  0  0  0  0  0  0  0  0
   13.6505    0.4143   23.6394 N   0  0  0  0  0  0  0  0  0  0  0  0
    8.4516   -2.8588   29.2110 N   0  0  0  0  0  0  0  0  0  0  0  0
   10.5472   -1.5954   23.7932 N   0  0  0  0  0  0  0  0  0  0  0  0
   10.1741   -3.4743   22.4337 O   0  0  0  0  0  0  0  0  0  0  0  0
    9.2376   -1.7102   27.0326 S   0  0  0  0  0  0  0  0  0  0  0  0
   14.3739   -1.8946   21.2637 H   0  0  0  0  0  0  0  0  0  0  0  0
   12.1203   -2.7106   21.9178 H   0  0  0  0  0  0  0  0  0  0  0  0
   15.2882    0.1252   22.4196 H   0  0  0  0  0  0  0  0  0  0  0  0
   11.9235    0.5144   24.7522 H   0  0  0  0  0  0  0  0  0  0  0  0
    8.5184   -4.8816   28.5555 H   0  0  0  0  0  0  0  0  0  0  0  0
    5.9075   -6.4292   24.1411 H   0  0  0  0  0  0  0  0  0  0  0  0
    5.1291   -5.5181   22.8510 H   0  0  0  0  0  0  0  0  0  0  0  0
    5.6637   -3.3900   23.9358 H   0  0  0  0  0  0  0  0  0  0  0  0
    4.8611   -4.4410   25.0918 H   0  0  0  0  0  0  0  0  0  0  0  0
    7.4033   -6.3403   22.2142 H   0  0  0  0  0  0  0  0  0  0  0  0
    7.2724   -4.5921   22.1164 H   0  0  0  0  0  0  0  0  0  0  0  0
    6.8240   -3.2900   26.1009 H   0  0  0  0  0  0  0  0  0  0  0  0
    6.9513   -5.0411   26.1567 H   0  0  0  0  0  0  0  0  0  0  0  0
    8.5530   -6.2389   24.3443 H   0  0  0  0  0  0  0  0  0  0  0  0
    9.3939   -5.2114   23.1940 H   0  0  0  0  0  0  0  0  0  0  0  0
    9.5192   -0.1176   29.8653 H   0  0  0  0  0  0  0  0  0  0  0  0
    8.3147    0.4209   28.6692 H   0  0  0  0  0  0  0  0  0  0  0  0
    7.7831   -0.4170   30.1262 H   0  0  0  0  0  0  0  0  0  0  0  0
   10.3846   -3.8544   25.3706 H   0  0  0  0  0  0  0  0  0  0  0  0
    9.6094   -5.2631   26.0665 H   0  0  0  0  0  0  0  0  0  0  0  0
    8.4164   -1.9710   24.7444 H   0  0  0  0  0  0  0  0  0  0  0  0
    7.6900   -2.6867   23.2927 H   0  0  0  0  0  0  0  0  0  0  0  0
   10.1080   -1.0387   24.5236 H   0  0  0  0  0  0  0  0  0  0  0  0
  1  2  2  0  0  0  0
  1  3  1  0  0  0  0
  1 24  1  0  0  0  0
  2  6  1  0  0  0  0
  2 25  1  0  0  0  0
  3 19  2  0  0  0  0
  3 26  1  0  0  0  0
  4  6  2  0  0  0  0
  4 19  1  0  0  0  0
  4 27  1  0  0  0  0
  5  7  2  0  0  0  0
  5 20  1  0  0  0  0
  5 28  1  0  0  0  0
  6 21  1  0  0  0  0
  7 17  1  0  0  0  0
  7 23  1  0  0  0  0
  8 16  1  0  0  0  0
  8 20  2  0  0  0  0
  8 23  1  0  0  0  0
  9 18  1  0  0  0  0
  9 21  1  0  0  0  0
  9 22  2  0  0  0  0
 10 11  1  0  0  0  0
 10 12  1  0  0  0  0
 10 29  1  0  0  0  0
 10 30  1  0  0  0  0
 11 13  1  0  0  0  0
 11 31  1  0  0  0  0
 11 32  1  0  0  0  0
 12 14  1  0  0  0  0
 12 33  1  0  0  0  0
 12 34  1  0  0  0  0
 13 15  1  0  0  0  0
 13 35  1  0  0  0  0
 13 36  1  0  0  0  0
 14 15  1  0  0  0  0
 14 37  1  0  0  0  0
 14 38  1  0  0  0  0
 15 17  1  0  0  0  0
 15 18  1  0  0  0  0
 16 39  1  0  0  0  0
 16 40  1  0  0  0  0
 16 41  1  0  0  0  0
 17 42  1  0  0  0  0
 17 43  1  0  0  0  0
 18 44  1  0  0  0  0
 18 45  1  0  0  0  0
 21 46  1  0  0  0  0
M  END
>  <Chemgauss4 Score>
-5.61954641342163

>  <Number of Confs>
200

$$$$
