ANT-DIA-b7f-4
 OpenBabel03242009303D

 25 25  0  0  0  0  0  0  0  0999 V2000
    7.1565   -4.9034   25.8839 C   0  0  0  0  0  0  0  0  0  0  0  0
    8.3959   -5.5419   25.9252 C   0  0  0  0  0  0  0  0  0  0  0  0
    7.0148   -3.6995   25.1937 C   0  0  0  0  0  0  0  0  0  0  0  0
    9.4937   -4.9766   25.2765 C   0  0  0  0  0  0  0  0  0  0  0  0
    8.1126   -3.1341   24.5450 C   0  0  0  0  0  0  0  0  0  0  0  0
    9.3520   -3.7726   24.5863 C   0  0  0  0  0  0  0  0  0  0  0  0
   12.1845   -0.9182   22.6091 C   0  0  0  0  0  0  0  0  0  0  0  0
   13.3099   -0.4702   21.7367 C   0  0  0  0  0  0  0  0  0  0  0  0
   10.5255   -3.1674   23.8927 C   0  0  0  0  0  0  0  0  0  0  0  0
   10.1484   -2.3447   22.6545 C   0  0  0  0  0  0  0  0  0  0  0  0
   11.3002   -1.7905   21.9949 N   0  0  0  0  0  0  0  0  0  0  0  0
   12.1137   -0.5087   23.7619 O   0  0  0  0  0  0  0  0  0  0  0  0
    6.3015   -5.3445   26.3879 H   0  0  0  0  0  0  0  0  0  0  0  0
    8.5061   -6.4799   26.4616 H   0  0  0  0  0  0  0  0  0  0  0  0
    6.0497   -3.2027   25.1604 H   0  0  0  0  0  0  0  0  0  0  0  0
   10.4556   -5.4810   25.3142 H   0  0  0  0  0  0  0  0  0  0  0  0
    7.9928   -2.1958   24.0098 H   0  0  0  0  0  0  0  0  0  0  0  0
   13.0673    0.4459   21.1747 H   0  0  0  0  0  0  0  0  0  0  0  0
   14.2171   -0.2268   22.3127 H   0  0  0  0  0  0  0  0  0  0  0  0
   13.6359   -1.1984   20.9770 H   0  0  0  0  0  0  0  0  0  0  0  0
   11.2196   -3.9670   23.5835 H   0  0  0  0  0  0  0  0  0  0  0  0
   11.1045   -2.5356   24.5879 H   0  0  0  0  0  0  0  0  0  0  0  0
    9.6348   -2.9719   21.9190 H   0  0  0  0  0  0  0  0  0  0  0  0
    9.4858   -1.5132   22.9163 H   0  0  0  0  0  0  0  0  0  0  0  0
   11.4750   -2.0529   21.0261 H   0  0  0  0  0  0  0  0  0  0  0  0
  1  2  1  0  0  0  0
  1  3  2  0  0  0  0
  1 13  1  0  0  0  0
  2  4  2  0  0  0  0
  2 14  1  0  0  0  0
  3  5  1  0  0  0  0
  3 15  1  0  0  0  0
  4  6  1  0  0  0  0
  4 16  1  0  0  0  0
  5  6  2  0  0  0  0
  5 17  1  0  0  0  0
  6  9  1  0  0  0  0
  7  8  1  0  0  0  0
  7 11  1  0  0  0  0
  7 12  2  0  0  0  0
  8 18  1  0  0  0  0
  8 19  1  0  0  0  0
  8 20  1  0  0  0  0
  9 10  1  0  0  0  0
  9 21  1  0  0  0  0
  9 22  1  0  0  0  0
 10 11  1  0  0  0  0
 10 23  1  0  0  0  0
 10 24  1  0  0  0  0
 11 25  1  0  0  0  0
M  END
>  <Chemgauss4 Score>
-4.91220235824585

>  <Number of Confs>
17

$$$$
