SAL-INS-316-4
 OpenBabel03242009303D

 46 49  0  0  0  0  0  0  0  0999 V2000
    5.2095   -2.6137   25.7540 C   0  0  0  0  0  0  0  0  0  0  0  0
    5.4507   -3.0789   24.4828 C   0  0  0  0  0  0  0  0  0  0  0  0
    9.6167   -5.9531   25.1003 C   0  0  0  0  0  0  0  0  0  0  0  0
   10.5683   -1.7559   25.8805 C   0  0  0  0  0  0  0  0  0  0  0  0
    9.0051   -5.2772   26.1336 C   0  0  0  0  0  0  0  0  0  0  0  0
   11.0491   -2.6192   24.9191 C   0  0  0  0  0  0  0  0  0  0  0  0
   10.4368   -3.8912   25.0662 C   0  0  0  0  0  0  0  0  0  0  0  0
    9.5429   -3.9587   26.0953 C   0  0  0  0  0  0  0  0  0  0  0  0
    6.0308   -4.5610   26.0071 C   0  0  0  0  0  0  0  0  0  0  0  0
   10.9645   -0.1707   23.1892 C   0  0  0  0  0  0  0  0  0  0  0  0
   10.3235   -2.3222   22.0242 C   0  0  0  0  0  0  0  0  0  0  0  0
   10.3066    0.6283   22.0682 C   0  0  0  0  0  0  0  0  0  0  0  0
    9.6677   -1.5170   20.9064 C   0  0  0  0  0  0  0  0  0  0  0  0
   11.4595   -1.5371   22.6948 C   0  0  2  0  0  0  0  0  0  0  0  0
    9.1798   -0.1580   21.4015 C   0  0  2  0  0  0  0  0  0  0  0  0
   12.0640   -2.3400   23.8451 C   0  0  0  0  0  0  0  0  0  0  0  0
    8.0104   -5.7329   27.1089 C   0  0  0  0  0  0  0  0  0  0  0  0
    6.5649   -5.8608   26.5578 C   0  0  0  0  0  0  0  0  0  0  0  0
    5.5731   -3.5409   26.6984 N   0  0  0  0  0  0  0  0  0  0  0  0
   10.4852   -5.1176   24.4506 N   0  0  0  0  0  0  0  0  0  0  0  0
    5.9771   -4.3273   24.6611 N   0  0  0  0  0  0  0  0  0  0  0  0
    8.6757    0.5761   20.2911 O   0  0  0  0  0  0  0  0  0  0  0  0
    9.4058   -2.4533   26.9419 S   0  0  0  0  0  0  0  0  0  0  0  0
    4.7941   -1.6579   26.0373 H   0  0  0  0  0  0  0  0  0  0  0  0
    5.3012   -2.6523   23.5017 H   0  0  0  0  0  0  0  0  0  0  0  0
    9.5070   -6.9757   24.7662 H   0  0  0  0  0  0  0  0  0  0  0  0
   10.8452   -0.7205   26.0230 H   0  0  0  0  0  0  0  0  0  0  0  0
   11.8026    0.4047   23.5999 H   0  0  0  0  0  0  0  0  0  0  0  0
   10.2437   -0.3073   24.0057 H   0  0  0  0  0  0  0  0  0  0  0  0
    9.5637   -2.5900   22.7697 H   0  0  0  0  0  0  0  0  0  0  0  0
   10.7107   -3.2623   21.6139 H   0  0  0  0  0  0  0  0  0  0  0  0
    9.9153    1.5747   22.4610 H   0  0  0  0  0  0  0  0  0  0  0  0
   11.0585    0.9076   21.3184 H   0  0  0  0  0  0  0  0  0  0  0  0
   10.3775   -1.3772   20.0807 H   0  0  0  0  0  0  0  0  0  0  0  0
    8.8284   -2.0811   20.4823 H   0  0  0  0  0  0  0  0  0  0  0  0
   12.2489   -1.3688   21.9497 H   0  0  0  0  0  0  0  0  0  0  0  0
    8.3559   -0.2984   22.1114 H   0  0  0  0  0  0  0  0  0  0  0  0
   12.9122   -1.7907   24.2659 H   0  0  0  0  0  0  0  0  0  0  0  0
   12.4682   -3.2812   23.4590 H   0  0  0  0  0  0  0  0  0  0  0  0
    8.2936   -6.7295   27.5135 H   0  0  0  0  0  0  0  0  0  0  0  0
    7.9840   -5.0819   28.0114 H   0  0  0  0  0  0  0  0  0  0  0  0
    5.8830   -6.2056   27.3460 H   0  0  0  0  0  0  0  0  0  0  0  0
    6.5339   -6.6352   25.7808 H   0  0  0  0  0  0  0  0  0  0  0  0
   11.0735   -5.3320   23.6551 H   0  0  0  0  0  0  0  0  0  0  0  0
    6.2700   -4.9620   23.9300 H   0  0  0  0  0  0  0  0  0  0  0  0
    8.3467    1.4191   20.6414 H   0  0  0  0  0  0  0  0  0  0  0  0
  1  2  2  0  0  0  0
  1 19  1  0  0  0  0
  1 24  1  0  0  0  0
  2 21  1  0  0  0  0
  2 25  1  0  0  0  0
  3  5  2  0  0  0  0
  3 20  1  0  0  0  0
  3 26  1  0  0  0  0
  4  6  2  0  0  0  0
  4 23  1  0  0  0  0
  4 27  1  0  0  0  0
  5  8  1  0  0  0  0
  5 17  1  0  0  0  0
  6  7  1  0  0  0  0
  6 16  1  0  0  0  0
  7  8  2  0  0  0  0
  7 20  1  0  0  0  0
  8 23  1  0  0  0  0
  9 18  1  0  0  0  0
  9 19  2  0  0  0  0
  9 21  1  0  0  0  0
 10 12  1  0  0  0  0
 10 14  1  0  0  0  0
 10 28  1  0  0  0  0
 10 29  1  0  0  0  0
 11 13  1  0  0  0  0
 11 14  1  0  0  0  0
 11 30  1  0  0  0  0
 11 31  1  0  0  0  0
 12 15  1  0  0  0  0
 12 32  1  0  0  0  0
 12 33  1  0  0  0  0
 13 15  1  0  0  0  0
 13 34  1  0  0  0  0
 13 35  1  0  0  0  0
 14 16  1  0  0  0  0
 14 36  1  6  0  0  0
 15 22  1  0  0  0  0
 15 37  1  1  0  0  0
 16 38  1  0  0  0  0
 16 39  1  0  0  0  0
 17 18  1  0  0  0  0
 17 40  1  0  0  0  0
 17 41  1  0  0  0  0
 18 42  1  0  0  0  0
 18 43  1  0  0  0  0
 20 44  1  0  0  0  0
 21 45  1  0  0  0  0
 22 46  1  0  0  0  0
M  END
>  <Chemgauss4 Score>
-5.15358543395996

>  <Number of Confs>
200

$$$$
