DAN-LON-a5f-5
 OpenBabel03242009303D

 44 46  0  0  1  0  0  0  0  0999 V2000
    5.9921    1.7507   20.8752 C   0  0  0  0  0  0  0  0  0  0  0  0
   11.1362   -0.0208   23.9559 C   0  0  0  0  0  0  0  0  0  0  0  0
   11.7045   -1.9382   22.6003 C   0  0  0  0  0  0  0  0  0  0  0  0
    7.0387    1.0467   21.4705 C   0  0  0  0  0  0  0  0  0  0  0  0
    5.3903    1.2586   19.7170 C   0  0  0  0  0  0  0  0  0  0  0  0
   12.3870    0.5369   23.6914 C   0  0  0  0  0  0  0  0  0  0  0  0
   12.9554   -1.3804   22.3358 C   0  0  0  0  0  0  0  0  0  0  0  0
    6.8820   -0.6416   19.7494 C   0  0  0  0  0  0  0  0  0  0  0  0
   10.7950   -1.2584   23.4103 C   0  0  0  0  0  0  0  0  0  0  0  0
    7.4838   -0.1494   20.9076 C   0  0  0  0  0  0  0  0  0  0  0  0
   13.2966   -0.1428   22.8814 C   0  0  0  0  0  0  0  0  0  0  0  0
    5.8353    0.0624   19.1541 C   0  0  0  0  0  0  0  0  0  0  0  0
    8.1759   -5.1681   24.9118 C   0  0  0  0  0  0  0  0  0  0  0  0
    6.9911   -3.0686   24.1435 C   0  0  0  0  0  0  0  0  0  0  0  0
    7.1014   -2.1560   22.9241 C   0  0  0  0  0  0  0  0  0  0  0  0
    9.4152   -3.4089   23.6981 C   0  0  0  0  0  0  0  0  0  0  0  0
    9.4273   -1.8677   23.6978 C   0  0  2  0  0  0  0  0  0  0  0  0
    8.6113   -0.9060   21.5483 C   0  0  0  0  0  0  0  0  0  0  0  0
    9.4964   -5.8971   24.9454 C   0  0  0  0  0  0  0  0  0  0  0  0
    8.1717   -3.9276   24.2747 N   0  0  0  0  0  0  0  0  0  0  0  0
    8.2982   -1.2943   22.9244 N   0  0  0  0  0  0  0  0  0  0  0  0
    7.1831   -5.6788   25.4358 O   0  0  0  0  0  0  0  0  0  0  0  0
   14.8394    0.5455   22.5552 Cl  0  0  0  0  0  0  0  0  0  0  0  0
    5.0933   -0.5437   17.7245 Cl  0  0  0  0  0  0  0  0  0  0  0  0
   10.3305   -5.3613   26.3996 Cl  0  0  0  0  0  0  0  0  0  0  0  0
    5.6459    2.6822   21.3138 H   0  0  0  0  0  0  0  0  0  0  0  0
   10.4330    0.5149   24.5882 H   0  0  0  0  0  0  0  0  0  0  0  0
   11.4463   -2.9028   22.1712 H   0  0  0  0  0  0  0  0  0  0  0  0
    7.5018    1.4377   22.3727 H   0  0  0  0  0  0  0  0  0  0  0  0
    4.5757    1.8181   19.2637 H   0  0  0  0  0  0  0  0  0  0  0  0
   12.6388    1.5022   24.1232 H   0  0  0  0  0  0  0  0  0  0  0  0
   13.6540   -1.9216   21.7029 H   0  0  0  0  0  0  0  0  0  0  0  0
    7.2323   -1.5749   19.3147 H   0  0  0  0  0  0  0  0  0  0  0  0
    6.8589   -2.4636   25.0428 H   0  0  0  0  0  0  0  0  0  0  0  0
    6.1230   -3.7283   24.0648 H   0  0  0  0  0  0  0  0  0  0  0  0
    7.0672   -2.7558   22.0060 H   0  0  0  0  0  0  0  0  0  0  0  0
    6.2137   -1.5108   22.8807 H   0  0  0  0  0  0  0  0  0  0  0  0
    9.4957   -3.8158   22.6827 H   0  0  0  0  0  0  0  0  0  0  0  0
   10.2862   -3.7753   24.2478 H   0  0  0  0  0  0  0  0  0  0  0  0
    9.2345   -1.5537   24.7741 H   0  0  0  0  0  0  0  0  0  0  0  0
    8.8348   -1.8175   20.9832 H   0  0  0  0  0  0  0  0  0  0  0  0
    9.5259   -0.3043   21.5701 H   0  0  0  0  0  0  0  0  0  0  0  0
   10.0696   -5.6263   24.0662 H   0  0  0  0  0  0  0  0  0  0  0  0
    9.3076   -6.9633   24.9956 H   0  0  0  0  0  0  0  0  0  0  0  0
  1  4  2  0  0  0  0
  1  5  1  0  0  0  0
  1 26  1  0  0  0  0
  2  6  2  0  0  0  0
  2  9  1  0  0  0  0
  2 27  1  0  0  0  0
  3  7  1  0  0  0  0
  3  9  2  0  0  0  0
  3 28  1  0  0  0  0
  4 10  1  0  0  0  0
  4 29  1  0  0  0  0
  5 12  2  0  0  0  0
  5 30  1  0  0  0  0
  6 11  1  0  0  0  0
  6 31  1  0  0  0  0
  7 11  2  0  0  0  0
  7 32  1  0  0  0  0
  8 10  2  0  0  0  0
  8 12  1  0  0  0  0
  8 33  1  0  0  0  0
  9 17  1  0  0  0  0
 10 18  1  0  0  0  0
 11 23  1  0  0  0  0
 12 24  1  0  0  0  0
 13 19  1  0  0  0  0
 13 20  1  0  0  0  0
 13 22  2  0  0  0  0
 14 15  1  0  0  0  0
 14 20  1  0  0  0  0
 14 34  1  0  0  0  0
 14 35  1  0  0  0  0
 15 21  1  0  0  0  0
 15 36  1  0  0  0  0
 15 37  1  0  0  0  0
 16 17  1  0  0  0  0
 16 20  1  0  0  0  0
 16 38  1  0  0  0  0
 16 39  1  0  0  0  0
 17 21  1  0  0  0  0
 17 40  1  1  0  0  0
 18 21  1  0  0  0  0
 18 41  1  0  0  0  0
 18 42  1  0  0  0  0
 19 25  1  0  0  0  0
 19 43  1  0  0  0  0
 19 44  1  0  0  0  0
M  END
>  <Chemgauss4 Score>
-4.69096708297729

>  <Number of Confs>
58

$$$$
