DAR-DIA-43a-12
 OpenBabel03242009303D

 53 55  0  0  1  0  0  0  0  0999 V2000
    9.4246   -2.4608   22.1571 C   0  0  0  0  0  0  0  0  0  0  0  0
    3.8201   -4.5687   26.9526 C   0  0  0  0  0  0  0  0  0  0  0  0
    9.2339   -2.9984   23.4300 C   0  0  0  0  0  0  0  0  0  0  0  0
    5.0857   -4.7238   27.5072 C   0  0  0  0  0  0  0  0  0  0  0  0
   10.6236   -1.8212   21.8425 C   0  0  0  0  0  0  0  0  0  0  0  0
   11.4414   -2.2568   24.0737 C   0  0  0  0  0  0  0  0  0  0  0  0
    3.5582   -5.2003   25.7476 C   0  0  0  0  0  0  0  0  0  0  0  0
    5.6759   -6.0855   25.6488 C   0  0  0  0  0  0  0  0  0  0  0  0
   10.2423   -2.8964   24.3883 C   0  0  0  0  0  0  0  0  0  0  0  0
    6.0372   -5.4951   26.8491 C   0  0  0  0  0  0  0  0  0  0  0  0
   11.6320   -1.7192   22.8008 C   0  0  0  0  0  0  0  0  0  0  0  0
    9.1404   -4.6822   25.8688 C   0  0  0  0  0  0  0  0  0  0  0  0
    8.3808   -4.6470   26.9705 C   0  0  0  0  0  0  0  0  0  0  0  0
    8.4784   -1.4989   26.2069 C   0  0  0  0  0  0  0  0  0  0  0  0
    8.6308   -3.4103   27.7797 C   0  0  0  0  0  0  0  0  0  0  0  0
   10.0343   -3.4787   25.7692 C   0  0  2  0  0  0  0  0  0  0  0  0
    9.4138   -2.5148   26.8076 C   0  0  1  0  0  0  0  0  0  0  0  0
    7.4185   -5.6832   27.4249 C   0  0  0  0  0  0  0  0  0  0  0  0
    7.6041    1.8916   23.1225 C   0  0  0  0  0  0  0  0  0  0  0  0
    8.3794    0.7330   23.7594 C   0  0  0  0  0  0  0  0  0  0  0  0
    7.6196    1.8367   21.5980 C   0  0  0  0  0  0  0  0  0  0  0  0
    8.3735    0.8064   25.2813 C   0  0  0  0  0  0  0  0  0  0  0  0
    4.4567   -5.9575   25.0790 N   0  0  0  0  0  0  0  0  0  0  0  0
    8.9492    1.9195   21.0601 N   0  0  0  0  0  0  0  0  0  0  0  0
    9.0858   -0.3037   25.8722 N   0  0  0  0  0  0  0  0  0  0  0  0
    7.2952   -1.7809   26.0578 O   0  0  0  0  0  0  0  0  0  0  0  0
   13.1107   -0.9290   22.4124 Cl  0  0  0  0  0  0  0  0  0  0  0  0
    8.6390   -2.5403   21.4112 H   0  0  0  0  0  0  0  0  0  0  0  0
    3.0626   -3.9722   27.4481 H   0  0  0  0  0  0  0  0  0  0  0  0
    8.2964   -3.4949   23.6664 H   0  0  0  0  0  0  0  0  0  0  0  0
    5.3213   -4.2408   28.4516 H   0  0  0  0  0  0  0  0  0  0  0  0
   10.7582   -1.4067   20.8464 H   0  0  0  0  0  0  0  0  0  0  0  0
   12.2247   -2.1803   24.8243 H   0  0  0  0  0  0  0  0  0  0  0  0
    2.5863   -5.1100   25.2736 H   0  0  0  0  0  0  0  0  0  0  0  0
    6.3763   -6.6986   25.0900 H   0  0  0  0  0  0  0  0  0  0  0  0
    9.1464   -5.4983   25.1589 H   0  0  0  0  0  0  0  0  0  0  0  0
    7.6945   -2.9496   28.1119 H   0  0  0  0  0  0  0  0  0  0  0  0
    9.2348   -3.6587   28.6594 H   0  0  0  0  0  0  0  0  0  0  0  0
   11.0492   -3.7822   26.1370 H   0  0  0  0  0  0  0  0  0  0  0  0
   10.1937   -1.9497   27.3343 H   0  0  0  0  0  0  0  0  0  0  0  0
    7.3560   -5.6745   28.5219 H   0  0  0  0  0  0  0  0  0  0  0  0
    7.7989   -6.6788   27.1594 H   0  0  0  0  0  0  0  0  0  0  0  0
    8.0203    2.8485   23.4601 H   0  0  0  0  0  0  0  0  0  0  0  0
    6.5617    1.8545   23.4616 H   0  0  0  0  0  0  0  0  0  0  0  0
    7.9304   -0.2182   23.4502 H   0  0  0  0  0  0  0  0  0  0  0  0
    9.4158    0.7369   23.4022 H   0  0  0  0  0  0  0  0  0  0  0  0
    7.0557    2.6804   21.1877 H   0  0  0  0  0  0  0  0  0  0  0  0
    7.1653    0.9120   21.2287 H   0  0  0  0  0  0  0  0  0  0  0  0
    8.8319    1.7355   25.6347 H   0  0  0  0  0  0  0  0  0  0  0  0
    7.3443    0.7743   25.6531 H   0  0  0  0  0  0  0  0  0  0  0  0
    9.6072    2.0109   21.8078 H   0  0  0  0  0  0  0  0  0  0  0  0
    9.1506    1.0900   20.5389 H   0  0  0  0  0  0  0  0  0  0  0  0
   10.0803   -0.2004   26.0499 H   0  0  0  0  0  0  0  0  0  0  0  0
  1  3  2  0  0  0  0
  1  5  1  0  0  0  0
  1 28  1  0  0  0  0
  2  4  2  0  0  0  0
  2  7  1  0  0  0  0
  2 29  1  0  0  0  0
  3  9  1  0  0  0  0
  3 30  1  0  0  0  0
  4 10  1  0  0  0  0
  4 31  1  0  0  0  0
  5 11  2  0  0  0  0
  5 32  1  0  0  0  0
  6  9  2  0  0  0  0
  6 11  1  0  0  0  0
  6 33  1  0  0  0  0
  7 23  2  0  0  0  0
  7 34  1  0  0  0  0
  8 10  2  0  0  0  0
  8 23  1  0  0  0  0
  8 35  1  0  0  0  0
  9 16  1  0  0  0  0
 10 18  1  0  0  0  0
 11 27  1  0  0  0  0
 12 13  2  0  0  0  0
 12 16  1  0  0  0  0
 12 36  1  0  0  0  0
 13 15  1  0  0  0  0
 13 18  1  0  0  0  0
 14 17  1  0  0  0  0
 14 25  1  0  0  0  0
 14 26  2  0  0  0  0
 15 17  1  0  0  0  0
 15 37  1  0  0  0  0
 15 38  1  0  0  0  0
 16 17  1  0  0  0  0
 16 39  1  1  0  0  0
 17 40  1  1  0  0  0
 18 41  1  0  0  0  0
 18 42  1  0  0  0  0
 19 20  1  0  0  0  0
 19 21  1  0  0  0  0
 19 43  1  0  0  0  0
 19 44  1  0  0  0  0
 20 22  1  0  0  0  0
 20 45  1  0  0  0  0
 20 46  1  0  0  0  0
 21 24  1  0  0  0  0
 21 47  1  0  0  0  0
 21 48  1  0  0  0  0
 22 25  1  0  0  0  0
 22 49  1  0  0  0  0
 22 50  1  0  0  0  0
 24 51  1  0  0  0  0
 24 52  1  0  0  0  0
 25 53  1  0  0  0  0
M  END
>  <Chemgauss4 Score>
-4.53945207595825

>  <Number of Confs>
200

$$$$
