CHR-SOS-e96-5
 OpenBabel03242009303D

 49 51  0  0  0  0  0  0  0  0999 V2000
    9.9533   -2.7061   27.5362 C   0  0  0  0  0  0  0  0  0  0  0  0
   10.3835   -1.9156   26.4705 C   0  0  0  0  0  0  0  0  0  0  0  0
    9.4081   -3.9669   27.2938 C   0  0  0  0  0  0  0  0  0  0  0  0
    4.4630   -3.6679   25.1467 C   0  0  0  0  0  0  0  0  0  0  0  0
    9.7232   -3.6468   24.9200 C   0  0  0  0  0  0  0  0  0  0  0  0
    4.1323   -4.2289   23.9237 C   0  0  0  0  0  0  0  0  0  0  0  0
    5.9562   -3.2830   22.8957 C   0  0  0  0  0  0  0  0  0  0  0  0
   10.2684   -2.3859   25.1624 C   0  0  0  0  0  0  0  0  0  0  0  0
    5.6059   -2.8788   25.2130 C   0  0  0  0  0  0  0  0  0  0  0  0
    6.3723   -2.6775   24.0705 C   0  0  0  0  0  0  0  0  0  0  0  0
    9.2931   -4.4373   25.9857 C   0  0  0  0  0  0  0  0  0  0  0  0
    8.3945   -1.6042   23.0214 C   0  0  0  0  0  0  0  0  0  0  0  0
   12.5747   -0.2080   23.0340 C   0  0  0  0  0  0  0  0  0  0  0  0
   12.2347   -1.3316   22.0618 C   0  0  0  0  0  0  0  0  0  0  0  0
   11.9108   -0.5782   24.3575 C   0  0  0  0  0  0  0  0  0  0  0  0
   11.3845   -2.3269   22.8464 C   0  0  0  0  0  0  0  0  0  0  0  0
   10.7400   -1.5193   23.9954 C   0  0  0  0  0  0  0  0  0  0  0  0
    5.9856   -2.2612   26.5188 C   0  0  0  0  0  0  0  0  0  0  0  0
    9.5309   -0.7111   23.4815 C   0  0  0  0  0  0  0  0  0  0  0  0
    4.8520   -4.0561   22.7924 N   0  0  0  0  0  0  0  0  0  0  0  0
    8.2626   -6.5305   27.2746 N   0  0  0  0  0  0  0  0  0  0  0  0
    7.5435   -1.8834   24.0870 N   0  0  0  0  0  0  0  0  0  0  0  0
    8.2910   -1.9934   21.8628 O   0  0  0  0  0  0  0  0  0  0  0  0
    7.3561   -5.8419   24.9617 O   0  0  0  0  0  0  0  0  0  0  0  0
    9.6494   -6.8716   25.1304 O   0  0  0  0  0  0  0  0  0  0  0  0
    8.6094   -6.0148   25.6830 S   0  0  0  0  0  0  0  0  0  0  0  0
   10.0435   -2.3402   28.5549 H   0  0  0  0  0  0  0  0  0  0  0  0
   10.8080   -0.9350   26.6690 H   0  0  0  0  0  0  0  0  0  0  0  0
    9.0758   -4.5739   28.1317 H   0  0  0  0  0  0  0  0  0  0  0  0
    3.8435   -3.8444   26.0194 H   0  0  0  0  0  0  0  0  0  0  0  0
    9.6344   -4.0123   23.8997 H   0  0  0  0  0  0  0  0  0  0  0  0
    3.2505   -4.8524   23.8190 H   0  0  0  0  0  0  0  0  0  0  0  0
    6.5126   -3.1638   21.9707 H   0  0  0  0  0  0  0  0  0  0  0  0
   13.6563   -0.0867   23.1533 H   0  0  0  0  0  0  0  0  0  0  0  0
   12.1794    0.7432   22.6598 H   0  0  0  0  0  0  0  0  0  0  0  0
   11.6702   -0.9324   21.2115 H   0  0  0  0  0  0  0  0  0  0  0  0
   13.1347   -1.8085   21.6602 H   0  0  0  0  0  0  0  0  0  0  0  0
   12.6428   -1.0997   24.9894 H   0  0  0  0  0  0  0  0  0  0  0  0
   11.5842    0.3089   24.9116 H   0  0  0  0  0  0  0  0  0  0  0  0
   10.6426   -2.8200   22.2088 H   0  0  0  0  0  0  0  0  0  0  0  0
   12.0370   -3.1142   23.2475 H   0  0  0  0  0  0  0  0  0  0  0  0
    6.6425   -2.9350   27.0809 H   0  0  0  0  0  0  0  0  0  0  0  0
    6.5076   -1.3080   26.3695 H   0  0  0  0  0  0  0  0  0  0  0  0
    5.0991   -2.0476   27.1288 H   0  0  0  0  0  0  0  0  0  0  0  0
    9.8531   -0.0860   22.6460 H   0  0  0  0  0  0  0  0  0  0  0  0
    9.1720   -0.0629   24.2839 H   0  0  0  0  0  0  0  0  0  0  0  0
    7.2778   -6.5722   27.5640 H   0  0  0  0  0  0  0  0  0  0  0  0
    8.8457   -7.2737   27.6783 H   0  0  0  0  0  0  0  0  0  0  0  0
    7.7794   -1.4750   24.9890 H   0  0  0  0  0  0  0  0  0  0  0  0
  1  2  2  0  0  0  0
  1  3  1  0  0  0  0
  1 27  1  0  0  0  0
  2  8  1  0  0  0  0
  2 28  1  0  0  0  0
  3 11  2  0  0  0  0
  3 29  1  0  0  0  0
  4  6  2  0  0  0  0
  4  9  1  0  0  0  0
  4 30  1  0  0  0  0
  5  8  2  0  0  0  0
  5 11  1  0  0  0  0
  5 31  1  0  0  0  0
  6 20  1  0  0  0  0
  6 32  1  0  0  0  0
  7 10  1  0  0  0  0
  7 20  2  0  0  0  0
  7 33  1  0  0  0  0
  8 17  1  0  0  0  0
  9 10  2  0  0  0  0
  9 18  1  0  0  0  0
 10 22  1  0  0  0  0
 11 26  1  0  0  0  0
 12 19  1  0  0  0  0
 12 22  1  0  0  0  0
 12 23  2  0  0  0  0
 13 14  1  0  0  0  0
 13 15  1  0  0  0  0
 13 34  1  0  0  0  0
 13 35  1  0  0  0  0
 14 16  1  0  0  0  0
 14 36  1  0  0  0  0
 14 37  1  0  0  0  0
 15 17  1  0  0  0  0
 15 38  1  0  0  0  0
 15 39  1  0  0  0  0
 16 17  1  0  0  0  0
 16 40  1  0  0  0  0
 16 41  1  0  0  0  0
 17 19  1  0  0  0  0
 18 42  1  0  0  0  0
 18 43  1  0  0  0  0
 18 44  1  0  0  0  0
 19 45  1  0  0  0  0
 19 46  1  0  0  0  0
 21 26  1  0  0  0  0
 21 47  1  0  0  0  0
 21 48  1  0  0  0  0
 22 49  1  0  0  0  0
 24 26  2  0  0  0  0
 25 26  2  0  0  0  0
M  END
>  <Chemgauss4 Score>
-4.59993743896484

>  <Number of Confs>
200

$$$$
