JOR-UNI-2fc-3
 OpenBabel03242009303D

 46 48  0  0  0  0  0  0  0  0999 V2000
   12.2196   -0.9229   22.6371 C   0  0  0  0  0  0  0  0  0  0  0  0
    7.1823   -6.5952   28.7239 C   0  0  0  0  0  0  0  0  0  0  0  0
   11.5643   -2.0928   23.0212 C   0  0  0  0  0  0  0  0  0  0  0  0
    7.9341   -6.3401   27.5824 C   0  0  0  0  0  0  0  0  0  0  0  0
   12.2116    0.1894   23.4788 C   0  0  0  0  0  0  0  0  0  0  0  0
   10.8928   -1.0380   25.0885 C   0  0  0  0  0  0  0  0  0  0  0  0
    7.1397   -5.6171   29.7044 C   0  0  0  0  0  0  0  0  0  0  0  0
    8.5041   -4.2192   28.4951 C   0  0  0  0  0  0  0  0  0  0  0  0
   10.9009   -2.1504   24.2468 C   0  0  0  0  0  0  0  0  0  0  0  0
    8.6108   -5.1318   27.4580 C   0  0  0  0  0  0  0  0  0  0  0  0
   11.5481    0.1319   24.7044 C   0  0  0  0  0  0  0  0  0  0  0  0
   10.1177   -3.6778   26.0404 C   0  0  0  0  0  0  0  0  0  0  0  0
    6.0509   -3.1619   23.9201 C   0  0  0  0  0  0  0  0  0  0  0  0
    6.1452   -5.5007   22.9898 C   0  0  0  0  0  0  0  0  0  0  0  0
    7.5595   -3.0549   23.6762 C   0  0  0  0  0  0  0  0  0  0  0  0
    7.6504   -5.3060   22.7812 C   0  0  0  0  0  0  0  0  0  0  0  0
    5.3836   -4.1763   22.9929 C   0  0  0  0  0  0  0  0  0  0  0  0
    9.6529   -4.2432   23.5948 C   0  0  0  0  0  0  0  0  0  0  0  0
    7.7835   -4.4315   29.6191 N   0  0  0  0  0  0  0  0  0  0  0  0
    8.2060   -4.3707   23.7686 N   0  0  0  0  0  0  0  0  0  0  0  0
    9.3853   -4.8432   26.3064 N   0  0  0  0  0  0  0  0  0  0  0  0
   10.2191   -3.3670   24.6445 N   0  0  0  0  0  0  0  0  0  0  0  0
   10.5814   -2.9633   26.9313 O   0  0  0  0  0  0  0  0  0  0  0  0
    5.3024   -3.6530   21.6693 O   0  0  0  0  0  0  0  0  0  0  0  0
   11.5381    1.5043   25.7429 Cl  0  0  0  0  0  0  0  0  0  0  0  0
   12.7362   -0.8782   21.6827 H   0  0  0  0  0  0  0  0  0  0  0  0
    6.6466   -7.5301   28.8422 H   0  0  0  0  0  0  0  0  0  0  0  0
   11.5773   -2.9534   22.3569 H   0  0  0  0  0  0  0  0  0  0  0  0
    7.9857   -7.0891   26.7966 H   0  0  0  0  0  0  0  0  0  0  0  0
   12.7268    1.0939   23.1661 H   0  0  0  0  0  0  0  0  0  0  0  0
   10.3747   -1.0865   26.0438 H   0  0  0  0  0  0  0  0  0  0  0  0
    6.5680   -5.7680   30.6142 H   0  0  0  0  0  0  0  0  0  0  0  0
    9.0092   -3.2586   28.4560 H   0  0  0  0  0  0  0  0  0  0  0  0
    5.8585   -3.4367   24.9683 H   0  0  0  0  0  0  0  0  0  0  0  0
    5.5794   -2.1743   23.7902 H   0  0  0  0  0  0  0  0  0  0  0  0
    5.7401   -6.1600   22.2049 H   0  0  0  0  0  0  0  0  0  0  0  0
    5.9647   -6.0343   23.9353 H   0  0  0  0  0  0  0  0  0  0  0  0
    7.7127   -2.6335   22.6753 H   0  0  0  0  0  0  0  0  0  0  0  0
    7.9981   -2.3513   24.3962 H   0  0  0  0  0  0  0  0  0  0  0  0
    8.1567   -6.2790   22.8349 H   0  0  0  0  0  0  0  0  0  0  0  0
    7.8047   -4.9134   21.7687 H   0  0  0  0  0  0  0  0  0  0  0  0
    4.3446   -4.3533   23.3386 H   0  0  0  0  0  0  0  0  0  0  0  0
   10.1251   -5.2291   23.6653 H   0  0  0  0  0  0  0  0  0  0  0  0
    9.8988   -3.8758   22.5930 H   0  0  0  0  0  0  0  0  0  0  0  0
    9.4128   -5.5631   25.5922 H   0  0  0  0  0  0  0  0  0  0  0  0
    4.7733   -2.8409   21.7218 H   0  0  0  0  0  0  0  0  0  0  0  0
  1  3  2  0  0  0  0
  1  5  1  0  0  0  0
  1 26  1  0  0  0  0
  2  4  2  0  0  0  0
  2  7  1  0  0  0  0
  2 27  1  0  0  0  0
  3  9  1  0  0  0  0
  3 28  1  0  0  0  0
  4 10  1  0  0  0  0
  4 29  1  0  0  0  0
  5 11  2  0  0  0  0
  5 30  1  0  0  0  0
  6  9  2  0  0  0  0
  6 11  1  0  0  0  0
  6 31  1  0  0  0  0
  7 19  2  0  0  0  0
  7 32  1  0  0  0  0
  8 10  2  0  0  0  0
  8 19  1  0  0  0  0
  8 33  1  0  0  0  0
  9 22  1  0  0  0  0
 10 21  1  0  0  0  0
 11 25  1  0  0  0  0
 12 21  1  0  0  0  0
 12 22  1  0  0  0  0
 12 23  2  0  0  0  0
 13 15  1  0  0  0  0
 13 17  1  0  0  0  0
 13 34  1  0  0  0  0
 13 35  1  0  0  0  0
 14 16  1  0  0  0  0
 14 17  1  0  0  0  0
 14 36  1  0  0  0  0
 14 37  1  0  0  0  0
 15 20  1  0  0  0  0
 15 38  1  0  0  0  0
 15 39  1  0  0  0  0
 16 20  1  0  0  0  0
 16 40  1  0  0  0  0
 16 41  1  0  0  0  0
 17 24  1  0  0  0  0
 17 42  1  0  0  0  0
 18 20  1  0  0  0  0
 18 22  1  0  0  0  0
 18 43  1  0  0  0  0
 18 44  1  0  0  0  0
 21 45  1  0  0  0  0
 24 46  1  0  0  0  0
M  END
>  <Chemgauss4 Score>
-6.00397062301636

>  <Number of Confs>
200

$$$$
