AGN-NEW-891-3
 OpenBabel03242009303D

 30 31  0  0  0  0  0  0  0  0999 V2000
   13.2213   -1.3610   22.0028 C   0  0  0  0  0  0  0  0  0  0  0  0
   11.8402   -1.2000   22.0014 C   0  0  0  0  0  0  0  0  0  0  0  0
    9.8367   -4.2220   24.8259 C   0  0  0  0  0  0  0  0  0  0  0  0
    8.4645   -3.2729   26.5732 C   0  0  0  0  0  0  0  0  0  0  0  0
    8.6119   -5.6712   26.3214 C   0  0  0  0  0  0  0  0  0  0  0  0
   13.9609   -0.6090   22.9013 C   0  0  0  0  0  0  0  0  0  0  0  0
   12.0772    0.3999   23.7450 C   0  0  0  0  0  0  0  0  0  0  0  0
    9.3302   -3.1062   25.4923 C   0  0  0  0  0  0  0  0  0  0  0  0
   11.2493   -0.3046   22.8859 C   0  0  0  0  0  0  0  0  0  0  0  0
    9.4775   -5.5045   25.2405 C   0  0  0  0  0  0  0  0  0  0  0  0
    8.1053   -4.5554   26.9878 C   0  0  0  0  0  0  0  0  0  0  0  0
    9.7142   -1.7355   25.0479 C   0  0  0  0  0  0  0  0  0  0  0  0
   13.4226    0.2704   23.7755 N   0  0  0  0  0  0  0  0  0  0  0  0
    9.8230   -0.1177   22.9097 N   0  0  0  0  0  0  0  0  0  0  0  0
    7.5619   -0.8350   23.8971 O   0  0  0  0  0  0  0  0  0  0  0  0
    8.9351   -2.5700   22.6932 O   0  0  0  0  0  0  0  0  0  0  0  0
    9.9715   -6.5935   24.5904 O   0  0  0  0  0  0  0  0  0  0  0  0
    8.8590   -1.3929   23.5438 S   0  0  0  0  0  0  0  0  0  0  0  0
    7.0382   -4.7614   28.3222 Cl  0  0  0  0  0  0  0  0  0  0  0  0
   13.7036   -2.0534   21.3226 H   0  0  0  0  0  0  0  0  0  0  0  0
   11.2339   -1.7775   21.3091 H   0  0  0  0  0  0  0  0  0  0  0  0
   10.5098   -4.0946   23.9818 H   0  0  0  0  0  0  0  0  0  0  0  0
    8.0724   -2.3993   27.0894 H   0  0  0  0  0  0  0  0  0  0  0  0
    8.3369   -6.6746   26.6384 H   0  0  0  0  0  0  0  0  0  0  0  0
   15.0415   -0.6982   22.9426 H   0  0  0  0  0  0  0  0  0  0  0  0
   11.6735    1.1114   24.4593 H   0  0  0  0  0  0  0  0  0  0  0  0
   10.7889   -1.6473   24.8521 H   0  0  0  0  0  0  0  0  0  0  0  0
    9.4331   -0.9674   25.7776 H   0  0  0  0  0  0  0  0  0  0  0  0
    9.5349    0.8285   23.1936 H   0  0  0  0  0  0  0  0  0  0  0  0
   10.5552   -6.3167   23.8661 H   0  0  0  0  0  0  0  0  0  0  0  0
  1  2  2  0  0  0  0
  1  6  1  0  0  0  0
  1 20  1  0  0  0  0
  2  9  1  0  0  0  0
  2 21  1  0  0  0  0
  3  8  1  0  0  0  0
  3 10  2  0  0  0  0
  3 22  1  0  0  0  0
  4  8  2  0  0  0  0
  4 11  1  0  0  0  0
  4 23  1  0  0  0  0
  5 10  1  0  0  0  0
  5 11  2  0  0  0  0
  5 24  1  0  0  0  0
  6 13  2  0  0  0  0
  6 25  1  0  0  0  0
  7  9  2  0  0  0  0
  7 13  1  0  0  0  0
  7 26  1  0  0  0  0
  8 12  1  0  0  0  0
  9 14  1  0  0  0  0
 10 17  1  0  0  0  0
 11 19  1  0  0  0  0
 12 18  1  0  0  0  0
 12 27  1  0  0  0  0
 12 28  1  0  0  0  0
 14 18  1  0  0  0  0
 14 29  1  0  0  0  0
 15 18  2  0  0  0  0
 16 18  2  0  0  0  0
 17 30  1  0  0  0  0
M  END
>  <Chemgauss4 Score>
-6.0377721786499

>  <Number of Confs>
200

$$$$
