ROB-UNI-b2e-3
 OpenBabel03242009303D

 51 52  0  0  0  0  0  0  0  0999 V2000
    6.1292   -3.9850   21.5733 C   0  0  0  0  0  0  0  0  0  0  0  0
    8.0198   -3.7490   23.1045 C   0  0  0  0  0  0  0  0  0  0  0  0
    7.6102   -2.0502   21.4183 C   0  0  0  0  0  0  0  0  0  0  0  0
   10.9745   -2.1545   24.5495 C   0  0  0  0  0  0  0  0  0  0  0  0
    7.2659   -3.2511   22.0355 C   0  0  0  0  0  0  0  0  0  0  0  0
    9.1385   -3.0201   23.5549 C   0  0  0  0  0  0  0  0  0  0  0  0
    8.7153   -1.3099   21.8478 C   0  0  0  0  0  0  0  0  0  0  0  0
   10.1026   -3.2183   24.5825 C   0  0  0  0  0  0  0  0  0  0  0  0
    9.4598   -1.8199   22.9174 C   0  0  0  0  0  0  0  0  0  0  0  0
   12.6272    0.0096   23.8767 C   0  0  0  0  0  0  0  0  0  0  0  0
    5.0710    2.0410   19.9105 C   0  0  0  0  0  0  0  0  0  0  0  0
    6.9952   -4.8487   28.9516 C   0  0  0  0  0  0  0  0  0  0  0  0
    9.0360   -0.0306   21.1463 C   0  0  0  0  0  0  0  0  0  0  0  0
   10.1659   -4.3572   25.5209 C   0  0  0  0  0  0  0  0  0  0  0  0
   11.2662   -0.0870   23.2088 C   0  0  0  0  0  0  0  0  0  0  0  0
    7.7999    0.6931   20.6008 C   0  0  0  0  0  0  0  0  0  0  0  0
    9.6668   -4.0295   26.9399 C   0  0  0  0  0  0  0  0  0  0  0  0
    5.2066   -4.5807   21.1982 N   0  0  0  0  0  0  0  0  0  0  0  0
   10.5784   -1.3163   23.5420 N   0  0  0  0  0  0  0  0  0  0  0  0
    6.8754    1.0572   21.6409 N   0  0  0  0  0  0  0  0  0  0  0  0
    8.2900   -3.6134   26.9477 N   0  0  0  0  0  0  0  0  0  0  0  0
    6.6844    3.6110   21.2456 O   0  0  0  0  0  0  0  0  0  0  0  0
    4.8324    2.4261   22.4796 O   0  0  0  0  0  0  0  0  0  0  0  0
    7.4817   -6.0612   26.6837 O   0  0  0  0  0  0  0  0  0  0  0  0
    5.7700   -4.2109   26.7386 O   0  0  0  0  0  0  0  0  0  0  0  0
    5.8585    2.4379   21.4546 S   0  0  0  0  0  0  0  0  0  0  0  0
    7.0336   -4.7731   27.1754 S   0  0  0  0  0  0  0  0  0  0  0  0
    7.7521   -4.6864   23.5861 H   0  0  0  0  0  0  0  0  0  0  0  0
    7.0139   -1.6774   20.5864 H   0  0  0  0  0  0  0  0  0  0  0  0
   11.8410   -1.9261   25.1563 H   0  0  0  0  0  0  0  0  0  0  0  0
   12.5369   -0.0351   24.9672 H   0  0  0  0  0  0  0  0  0  0  0  0
   13.1131    0.9540   23.6129 H   0  0  0  0  0  0  0  0  0  0  0  0
   13.2811   -0.8106   23.5622 H   0  0  0  0  0  0  0  0  0  0  0  0
    4.3804    2.8474   19.6588 H   0  0  0  0  0  0  0  0  0  0  0  0
    5.8426    1.9454   19.1451 H   0  0  0  0  0  0  0  0  0  0  0  0
    4.5324    1.0998   20.0307 H   0  0  0  0  0  0  0  0  0  0  0  0
    6.2256   -5.5626   29.2494 H   0  0  0  0  0  0  0  0  0  0  0  0
    7.9753   -5.1739   29.3037 H   0  0  0  0  0  0  0  0  0  0  0  0
    6.7622   -3.8536   29.3336 H   0  0  0  0  0  0  0  0  0  0  0  0
    9.7207   -0.2379   20.3077 H   0  0  0  0  0  0  0  0  0  0  0  0
    9.5924    0.6474   21.8147 H   0  0  0  0  0  0  0  0  0  0  0  0
   11.2082   -4.7236   25.6040 H   0  0  0  0  0  0  0  0  0  0  0  0
    9.5958   -5.2274   25.1375 H   0  0  0  0  0  0  0  0  0  0  0  0
   11.3668   -0.0415   22.1185 H   0  0  0  0  0  0  0  0  0  0  0  0
   10.6271    0.7500   23.5117 H   0  0  0  0  0  0  0  0  0  0  0  0
    8.0910    1.6209   20.0983 H   0  0  0  0  0  0  0  0  0  0  0  0
    7.2587    0.0703   19.8810 H   0  0  0  0  0  0  0  0  0  0  0  0
    9.7354   -4.9059   27.5921 H   0  0  0  0  0  0  0  0  0  0  0  0
   10.2579   -3.2238   27.3874 H   0  0  0  0  0  0  0  0  0  0  0  0
    6.4378    0.2627   22.1563 H   0  0  0  0  0  0  0  0  0  0  0  0
    8.1013   -2.6803   27.3745 H   0  0  0  0  0  0  0  0  0  0  0  0
  1  5  1  0  0  0  0
  1 18  3  0  0  0  0
  2  5  2  0  0  0  0
  2  6  1  0  0  0  0
  2 28  1  0  0  0  0
  3  5  1  0  0  0  0
  3  7  2  0  0  0  0
  3 29  1  0  0  0  0
  4  8  2  0  0  0  0
  4 19  1  0  0  0  0
  4 30  1  0  0  0  0
  6  8  1  0  0  0  0
  6  9  2  0  0  0  0
  7  9  1  0  0  0  0
  7 13  1  0  0  0  0
  8 14  1  0  0  0  0
  9 19  1  0  0  0  0
 10 15  1  0  0  0  0
 10 31  1  0  0  0  0
 10 32  1  0  0  0  0
 10 33  1  0  0  0  0
 11 26  1  0  0  0  0
 11 34  1  0  0  0  0
 11 35  1  0  0  0  0
 11 36  1  0  0  0  0
 12 27  1  0  0  0  0
 12 37  1  0  0  0  0
 12 38  1  0  0  0  0
 12 39  1  0  0  0  0
 13 16  1  0  0  0  0
 13 40  1  0  0  0  0
 13 41  1  0  0  0  0
 14 17  1  0  0  0  0
 14 42  1  0  0  0  0
 14 43  1  0  0  0  0
 15 19  1  0  0  0  0
 15 44  1  0  0  0  0
 15 45  1  0  0  0  0
 16 20  1  0  0  0  0
 16 46  1  0  0  0  0
 16 47  1  0  0  0  0
 17 21  1  0  0  0  0
 17 48  1  0  0  0  0
 17 49  1  0  0  0  0
 20 26  1  0  0  0  0
 20 50  1  0  0  0  0
 21 27  1  0  0  0  0
 21 51  1  0  0  0  0
 22 26  2  0  0  0  0
 23 26  2  0  0  0  0
 24 27  2  0  0  0  0
 25 27  2  0  0  0  0
M  END
>  <Chemgauss4 Score>
-6.32655382156372

>  <Number of Confs>
200

$$$$
