DAR-DIA-fc9-13
 OpenBabel03242009303D

 37 39  0  0  1  0  0  0  0  0999 V2000
    7.0416   -3.5464   28.4692 C   0  0  0  0  0  0  0  0  0  0  0  0
    7.7907   -4.6456   28.0496 C   0  0  0  0  0  0  0  0  0  0  0  0
    6.4940   -2.6751   27.5276 C   0  0  0  0  0  0  0  0  0  0  0  0
   13.0986   -0.7397   22.8351 C   0  0  0  0  0  0  0  0  0  0  0  0
    7.9923   -4.8735   26.6883 C   0  0  0  0  0  0  0  0  0  0  0  0
    6.6956   -2.9029   26.1664 C   0  0  0  0  0  0  0  0  0  0  0  0
   12.1585   -1.7504   22.6684 C   0  0  0  0  0  0  0  0  0  0  0  0
   12.8227    0.2571   23.7570 C   0  0  0  0  0  0  0  0  0  0  0  0
   10.8062   -0.6925   24.3141 C   0  0  0  0  0  0  0  0  0  0  0  0
    7.4447   -4.0021   25.7466 C   0  0  0  0  0  0  0  0  0  0  0  0
   10.9876   -1.7337   23.4181 C   0  0  0  0  0  0  0  0  0  0  0  0
   10.0337   -3.9396   24.0548 C   0  0  0  0  0  0  0  0  0  0  0  0
    8.8593   -4.8917   23.8935 C   0  0  0  0  0  0  0  0  0  0  0  0
    7.5511   -2.2759   22.8764 C   0  0  0  0  0  0  0  0  0  0  0  0
    8.9271   -2.5492   22.2632 C   0  0  0  0  0  0  0  0  0  0  0  0
    6.8517   -3.5467   23.3611 C   0  0  0  0  0  0  0  0  0  0  0  0
   11.6967    0.3070   24.5035 N   0  0  0  0  0  0  0  0  0  0  0  0
    9.9913   -2.7700   23.2673 N   0  0  0  0  0  0  0  0  0  0  0  0
    7.6463   -4.2300   24.3836 N   0  0  0  0  0  0  0  0  0  0  0  0
   10.8914   -4.2149   24.8971 O   0  0  0  0  0  0  0  0  0  0  0  0
    6.8849   -3.3689   29.5293 H   0  0  0  0  0  0  0  0  0  0  0  0
    8.2170   -5.3237   28.7826 H   0  0  0  0  0  0  0  0  0  0  0  0
    5.9106   -1.8191   27.8547 H   0  0  0  0  0  0  0  0  0  0  0  0
   14.0184   -0.7325   22.2614 H   0  0  0  0  0  0  0  0  0  0  0  0
    8.5777   -5.7328   26.3716 H   0  0  0  0  0  0  0  0  0  0  0  0
    6.2638   -2.2172   25.4417 H   0  0  0  0  0  0  0  0  0  0  0  0
   12.3481   -2.5456   21.9522 H   0  0  0  0  0  0  0  0  0  0  0  0
   13.5235    1.0685   23.9235 H   0  0  0  0  0  0  0  0  0  0  0  0
    9.9127   -0.6249   24.9277 H   0  0  0  0  0  0  0  0  0  0  0  0
    8.7433   -5.1240   22.8277 H   0  0  0  0  0  0  0  0  0  0  0  0
    9.0572   -5.8423   24.3991 H   0  0  0  0  0  0  0  0  0  0  0  0
    7.6865   -1.6175   23.7436 H   0  0  0  0  0  0  0  0  0  0  0  0
    6.9180   -1.7253   22.1700 H   0  0  0  0  0  0  0  0  0  0  0  0
    8.8595   -3.4512   21.6415 H   0  0  0  0  0  0  0  0  0  0  0  0
    9.2327   -1.7338   21.5980 H   0  0  0  0  0  0  0  0  0  0  0  0
    5.8630   -3.2980   23.7665 H   0  0  0  0  0  0  0  0  0  0  0  0
    6.6735   -4.2170   22.5109 H   0  0  0  0  0  0  0  0  0  0  0  0
  1  2  1  0  0  0  0
  1  3  2  0  0  0  0
  1 21  1  0  0  0  0
  2  5  2  0  0  0  0
  2 22  1  0  0  0  0
  3  6  1  0  0  0  0
  3 23  1  0  0  0  0
  4  7  2  0  0  0  0
  4  8  1  0  0  0  0
  4 24  1  0  0  0  0
  5 10  1  0  0  0  0
  5 25  1  0  0  0  0
  6 10  2  0  0  0  0
  6 26  1  0  0  0  0
  7 11  1  0  0  0  0
  7 27  1  0  0  0  0
  8 17  2  0  0  0  0
  8 28  1  0  0  0  0
  9 11  2  0  0  0  0
  9 17  1  0  0  0  0
  9 29  1  0  0  0  0
 10 19  1  0  0  0  0
 11 18  1  0  0  0  0
 12 13  1  0  0  0  0
 12 18  1  0  0  0  0
 12 20  2  0  0  0  0
 13 19  1  0  0  0  0
 13 30  1  0  0  0  0
 13 31  1  0  0  0  0
 14 15  1  0  0  0  0
 14 16  1  0  0  0  0
 14 32  1  0  0  0  0
 14 33  1  0  0  0  0
 15 18  1  0  0  0  0
 15 34  1  0  0  0  0
 15 35  1  0  0  0  0
 16 19  1  0  0  0  0
 16 36  1  0  0  0  0
 16 37  1  0  0  0  0
M  END
>  <Chemgauss4 Score>
-6.22195196151733

>  <Number of Confs>
52

$$$$
