DUN-NEW-f8c-2
 OpenBabel03242009303D

 50 52  0  0  1  0  0  0  0  0999 V2000
    5.4463   -4.5619   22.4444 C   0  0  0  0  0  0  0  0  0  0  0  0
    5.5726   -5.4732   23.4928 C   0  0  0  0  0  0  0  0  0  0  0  0
    6.1942   -3.3845   22.4498 C   0  0  0  0  0  0  0  0  0  0  0  0
    6.4467   -5.2071   24.5467 C   0  0  0  0  0  0  0  0  0  0  0  0
    7.0684   -3.1184   23.5036 C   0  0  0  0  0  0  0  0  0  0  0  0
    7.1947   -4.0297   24.5521 C   0  0  0  0  0  0  0  0  0  0  0  0
    9.3429   -5.8122   25.8793 C   0  0  0  0  0  0  0  0  0  0  0  0
   13.2101   -1.0913   22.2507 C   0  0  0  0  0  0  0  0  0  0  0  0
    8.7284   -3.4269   27.8399 C   0  0  0  0  0  0  0  0  0  0  0  0
    9.9655   -3.6807   26.9897 C   0  0  0  0  0  0  0  0  0  0  0  0
    7.6548   -3.0699   26.8172 C   0  0  0  0  0  0  0  0  0  0  0  0
   11.2792   -2.7405   22.1621 C   0  0  0  0  0  0  0  0  0  0  0  0
   11.5281   -1.1911   24.0599 C   0  0  0  0  0  0  0  0  0  0  0  0
    9.7782   -2.4453   22.1523 C   0  0  0  0  0  0  0  0  0  0  0  0
   10.0247   -0.9210   24.0099 C   0  0  0  0  0  0  0  0  0  0  0  0
    9.4090   -4.3250   25.7190 C   0  0  2  0  0  0  0  0  0  0  0  0
    7.8610   -1.8434   23.4836 C   0  0  0  0  0  0  0  0  0  0  0  0
   13.3837   -1.1428   20.7536 C   0  0  0  0  0  0  0  0  0  0  0  0
    8.0558   -3.7824   25.6043 N   0  0  0  0  0  0  0  0  0  0  0  0
   12.0313   -1.6337   22.7605 N   0  0  0  0  0  0  0  0  0  0  0  0
    9.3015   -2.0942   23.4981 N   0  0  0  0  0  0  0  0  0  0  0  0
   10.0940   -6.5031   24.9581 N   0  0  0  0  0  0  0  0  0  0  0  0
    8.6850   -6.3442   26.7701 O   0  0  0  0  0  0  0  0  0  0  0  0
   14.0936   -0.5808   22.9439 O   0  0  0  0  0  0  0  0  0  0  0  0
   12.6576    0.3262   20.1115 Cl  0  0  0  0  0  0  0  0  0  0  0  0
    4.7656   -4.7692   21.6239 H   0  0  0  0  0  0  0  0  0  0  0  0
    4.9901   -6.3899   23.4884 H   0  0  0  0  0  0  0  0  0  0  0  0
    6.0885   -2.6810   21.6281 H   0  0  0  0  0  0  0  0  0  0  0  0
    6.5367   -5.9247   25.3582 H   0  0  0  0  0  0  0  0  0  0  0  0
    8.4459   -4.3382   28.3800 H   0  0  0  0  0  0  0  0  0  0  0  0
    8.8864   -2.6306   28.5730 H   0  0  0  0  0  0  0  0  0  0  0  0
   10.4455   -2.7256   26.7441 H   0  0  0  0  0  0  0  0  0  0  0  0
   10.6915   -4.3094   27.5145 H   0  0  0  0  0  0  0  0  0  0  0  0
    6.6533   -3.3751   27.1486 H   0  0  0  0  0  0  0  0  0  0  0  0
    7.6461   -1.9838   26.6434 H   0  0  0  0  0  0  0  0  0  0  0  0
   11.4903   -3.6329   22.7644 H   0  0  0  0  0  0  0  0  0  0  0  0
   11.6102   -2.9523   21.1435 H   0  0  0  0  0  0  0  0  0  0  0  0
   12.0545   -0.2908   24.3932 H   0  0  0  0  0  0  0  0  0  0  0  0
   11.7529   -1.9862   24.7816 H   0  0  0  0  0  0  0  0  0  0  0  0
    9.5669   -1.6390   21.4372 H   0  0  0  0  0  0  0  0  0  0  0  0
    9.2553   -3.3417   21.7975 H   0  0  0  0  0  0  0  0  0  0  0  0
    9.6842   -0.6914   25.0268 H   0  0  0  0  0  0  0  0  0  0  0  0
    9.8285   -0.0352   23.3912 H   0  0  0  0  0  0  0  0  0  0  0  0
   10.0544   -4.0984   24.8596 H   0  0  0  0  0  0  0  0  0  0  0  0
    7.6294   -1.2590   22.5864 H   0  0  0  0  0  0  0  0  0  0  0  0
    7.6212   -1.2180   24.3499 H   0  0  0  0  0  0  0  0  0  0  0  0
   12.8644   -2.0134   20.3694 H   0  0  0  0  0  0  0  0  0  0  0  0
   14.4426   -1.1663   20.5234 H   0  0  0  0  0  0  0  0  0  0  0  0
   10.6174   -5.9788   24.2647 H   0  0  0  0  0  0  0  0  0  0  0  0
   10.1460   -7.5166   24.9437 H   0  0  0  0  0  0  0  0  0  0  0  0
  1  2  1  0  0  0  0
  1  3  2  0  0  0  0
  1 26  1  0  0  0  0
  2  4  2  0  0  0  0
  2 27  1  0  0  0  0
  3  5  1  0  0  0  0
  3 28  1  0  0  0  0
  4  6  1  0  0  0  0
  4 29  1  0  0  0  0
  5  6  2  0  0  0  0
  5 17  1  0  0  0  0
  6 19  1  0  0  0  0
  7 16  1  0  0  0  0
  7 22  1  0  0  0  0
  7 23  2  0  0  0  0
  8 18  1  0  0  0  0
  8 20  1  0  0  0  0
  8 24  2  0  0  0  0
  9 10  1  0  0  0  0
  9 11  1  0  0  0  0
  9 30  1  0  0  0  0
  9 31  1  0  0  0  0
 10 16  1  0  0  0  0
 10 32  1  0  0  0  0
 10 33  1  0  0  0  0
 11 19  1  0  0  0  0
 11 34  1  0  0  0  0
 11 35  1  0  0  0  0
 12 14  1  0  0  0  0
 12 20  1  0  0  0  0
 12 36  1  0  0  0  0
 12 37  1  0  0  0  0
 13 15  1  0  0  0  0
 13 20  1  0  0  0  0
 13 38  1  0  0  0  0
 13 39  1  0  0  0  0
 14 21  1  0  0  0  0
 14 40  1  0  0  0  0
 14 41  1  0  0  0  0
 15 21  1  0  0  0  0
 15 42  1  0  0  0  0
 15 43  1  0  0  0  0
 16 19  1  0  0  0  0
 16 44  1  6  0  0  0
 17 21  1  0  0  0  0
 17 45  1  0  0  0  0
 17 46  1  0  0  0  0
 18 25  1  0  0  0  0
 18 47  1  0  0  0  0
 18 48  1  0  0  0  0
 22 49  1  0  0  0  0
 22 50  1  0  0  0  0
M  END
>  <Chemgauss4 Score>
-5.19723081588745

>  <Number of Confs>
178

$$$$
