TRY-UNI-714-5
 OpenBabel03242009303D

 31 32  0  0  0  0  0  0  0  0999 V2000
   13.2976   -1.5640   21.9799 C   0  0  0  0  0  0  0  0  0  0  0  0
   13.3945   -0.4862   22.8599 C   0  0  0  0  0  0  0  0  0  0  0  0
   12.0648   -2.1801   21.7647 C   0  0  0  0  0  0  0  0  0  0  0  0
   12.2585   -0.0244   23.5248 C   0  0  0  0  0  0  0  0  0  0  0  0
   10.9289   -1.7184   22.4296 C   0  0  0  0  0  0  0  0  0  0  0  0
    8.7528   -5.4121   26.9562 C   0  0  0  0  0  0  0  0  0  0  0  0
    8.6712   -4.9191   28.2485 C   0  0  0  0  0  0  0  0  0  0  0  0
    9.0470   -2.7643   27.5457 C   0  0  0  0  0  0  0  0  0  0  0  0
   11.0257   -0.6405   23.3096 C   0  0  0  0  0  0  0  0  0  0  0  0
    8.9952   -4.5074   25.9285 C   0  0  0  0  0  0  0  0  0  0  0  0
    9.1464   -3.1564   26.2204 C   0  0  0  0  0  0  0  0  0  0  0  0
    9.5632   -0.8236   25.3665 C   0  0  0  0  0  0  0  0  0  0  0  0
    9.0886   -5.0117   24.5258 C   0  0  0  0  0  0  0  0  0  0  0  0
    9.8107   -0.1474   24.0204 C   0  0  0  0  0  0  0  0  0  0  0  0
    8.8126   -3.6138   28.5709 N   0  0  0  0  0  0  0  0  0  0  0  0
    9.3939   -2.1970   25.2099 N   0  0  0  0  0  0  0  0  0  0  0  0
    9.5278   -0.1853   26.4136 O   0  0  0  0  0  0  0  0  0  0  0  0
   14.1820   -1.9226   21.4612 H   0  0  0  0  0  0  0  0  0  0  0  0
   14.3541   -0.0056   23.0267 H   0  0  0  0  0  0  0  0  0  0  0  0
   11.9888   -3.0186   21.0788 H   0  0  0  0  0  0  0  0  0  0  0  0
   12.3435    0.8159   24.2088 H   0  0  0  0  0  0  0  0  0  0  0  0
    9.9726   -2.2046   22.2558 H   0  0  0  0  0  0  0  0  0  0  0  0
    8.6304   -6.4723   26.7621 H   0  0  0  0  0  0  0  0  0  0  0  0
    8.4839   -5.5835   29.0856 H   0  0  0  0  0  0  0  0  0  0  0  0
    9.1553   -1.7237   27.8367 H   0  0  0  0  0  0  0  0  0  0  0  0
    8.1002   -5.0017   24.0520 H   0  0  0  0  0  0  0  0  0  0  0  0
    9.7695   -4.3942   23.9272 H   0  0  0  0  0  0  0  0  0  0  0  0
    9.4794   -6.0364   24.4983 H   0  0  0  0  0  0  0  0  0  0  0  0
    9.8825    0.9391   24.1932 H   0  0  0  0  0  0  0  0  0  0  0  0
    8.9157   -0.2948   23.3939 H   0  0  0  0  0  0  0  0  0  0  0  0
    9.4553   -2.5521   24.2580 H   0  0  0  0  0  0  0  0  0  0  0  0
  1  2  1  0  0  0  0
  1  3  2  0  0  0  0
  1 18  1  0  0  0  0
  2  4  2  0  0  0  0
  2 19  1  0  0  0  0
  3  5  1  0  0  0  0
  3 20  1  0  0  0  0
  4  9  1  0  0  0  0
  4 21  1  0  0  0  0
  5  9  2  0  0  0  0
  5 22  1  0  0  0  0
  6  7  2  0  0  0  0
  6 10  1  0  0  0  0
  6 23  1  0  0  0  0
  7 15  1  0  0  0  0
  7 24  1  0  0  0  0
  8 11  1  0  0  0  0
  8 15  2  0  0  0  0
  8 25  1  0  0  0  0
  9 14  1  0  0  0  0
 10 11  2  0  0  0  0
 10 13  1  0  0  0  0
 11 16  1  0  0  0  0
 12 14  1  0  0  0  0
 12 16  1  0  0  0  0
 12 17  2  0  0  0  0
 13 26  1  0  0  0  0
 13 27  1  0  0  0  0
 13 28  1  0  0  0  0
 14 29  1  0  0  0  0
 14 30  1  0  0  0  0
 16 31  1  0  0  0  0
M  END
>  <Chemgauss4 Score>
-5.28764247894287

>  <Number of Confs>
10

$$$$
