SAL-INS-cba-8
 OpenBabel03242009303D

 47 50  0  0  0  0  0  0  0  0999 V2000
   11.9846   -1.4299   22.6044 C   0  0  0  0  0  0  0  0  0  0  0  0
   11.1619   -0.6687   21.8030 C   0  0  0  0  0  0  0  0  0  0  0  0
    6.0980   -4.4619   27.6930 C   0  0  0  0  0  0  0  0  0  0  0  0
    5.4386   -6.4806   27.1040 C   0  0  0  0  0  0  0  0  0  0  0  0
    8.9127   -2.0138   24.3193 C   0  0  0  0  0  0  0  0  0  0  0  0
    9.8641   -1.5362   23.3804 C   0  0  0  0  0  0  0  0  0  0  0  0
   11.1353   -1.9775   23.6084 C   0  0  0  0  0  0  0  0  0  0  0  0
    7.1389   -5.3598   27.7232 C   0  0  0  0  0  0  0  0  0  0  0  0
    9.5362   -2.8236   25.2446 C   0  0  0  0  0  0  0  0  0  0  0  0
    9.4456   -4.7123   26.9089 C   0  0  0  0  0  0  0  0  0  0  0  0
    6.9584   -3.6506   22.8062 C   0  0  0  0  0  0  0  0  0  0  0  0
    5.0884   -2.4646   24.0282 C   0  0  0  0  0  0  0  0  0  0  0  0
    6.0471   -4.8547   22.5874 C   0  0  0  0  0  0  0  0  0  0  0  0
    4.1825   -3.6720   23.8061 C   0  0  0  0  0  0  0  0  0  0  0  0
    6.5689   -2.8683   24.0683 C   0  0  2  0  0  0  0  0  0  0  0  0
    4.5752   -4.4488   22.5522 C   0  0  2  0  0  0  0  0  0  0  0  0
    7.4589   -1.6382   24.2362 C   0  0  0  0  0  0  0  0  0  0  0  0
    8.5772   -5.1077   28.0928 C   0  0  0  0  0  0  0  0  0  0  0  0
    6.7220   -6.6145   27.3552 N   0  0  0  0  0  0  0  0  0  0  0  0
    5.0156   -5.1944   27.2942 N   0  0  0  0  0  0  0  0  0  0  0  0
    9.8760   -0.7299   22.2692 N   0  0  0  0  0  0  0  0  0  0  0  0
    9.0134   -3.4944   26.3183 N   0  0  0  0  0  0  0  0  0  0  0  0
   10.3968   -5.3922   26.5375 O   0  0  0  0  0  0  0  0  0  0  0  0
    3.7598   -5.6122   22.4641 O   0  0  0  0  0  0  0  0  0  0  0  0
   11.2298   -3.0096   24.9968 S   0  0  0  0  0  0  0  0  0  0  0  0
   13.0488   -1.5730   22.4838 H   0  0  0  0  0  0  0  0  0  0  0  0
   11.3871   -0.0789   20.9254 H   0  0  0  0  0  0  0  0  0  0  0  0
    6.0275   -3.4058   27.9100 H   0  0  0  0  0  0  0  0  0  0  0  0
    4.7669   -7.2650   26.7848 H   0  0  0  0  0  0  0  0  0  0  0  0
    7.9972   -3.9925   22.8837 H   0  0  0  0  0  0  0  0  0  0  0  0
    6.9055   -2.9941   21.9282 H   0  0  0  0  0  0  0  0  0  0  0  0
    4.9216   -1.7356   23.2246 H   0  0  0  0  0  0  0  0  0  0  0  0
    4.8102   -1.9712   24.9670 H   0  0  0  0  0  0  0  0  0  0  0  0
    6.3135   -5.3625   21.6525 H   0  0  0  0  0  0  0  0  0  0  0  0
    6.2092   -5.5945   23.3824 H   0  0  0  0  0  0  0  0  0  0  0  0
    4.2228   -4.3350   24.6801 H   0  0  0  0  0  0  0  0  0  0  0  0
    3.1381   -3.3468   23.7298 H   0  0  0  0  0  0  0  0  0  0  0  0
    6.7253   -3.5190   24.9392 H   0  0  0  0  0  0  0  0  0  0  0  0
    4.3812   -3.8365   21.6634 H   0  0  0  0  0  0  0  0  0  0  0  0
    7.1612   -1.0941   25.1381 H   0  0  0  0  0  0  0  0  0  0  0  0
    7.2968   -0.9545   23.3969 H   0  0  0  0  0  0  0  0  0  0  0  0
    8.6295   -4.3130   28.8480 H   0  0  0  0  0  0  0  0  0  0  0  0
    9.0003   -6.0082   28.5558 H   0  0  0  0  0  0  0  0  0  0  0  0
    4.0741   -4.8491   27.1643 H   0  0  0  0  0  0  0  0  0  0  0  0
    9.0558   -0.2746   21.8888 H   0  0  0  0  0  0  0  0  0  0  0  0
    8.1862   -3.0513   26.7625 H   0  0  0  0  0  0  0  0  0  0  0  0
    4.0113   -6.0667   21.6446 H   0  0  0  0  0  0  0  0  0  0  0  0
  1  2  2  0  0  0  0
  1  7  1  0  0  0  0
  1 26  1  0  0  0  0
  2 21  1  0  0  0  0
  2 27  1  0  0  0  0
  3  8  2  0  0  0  0
  3 20  1  0  0  0  0
  3 28  1  0  0  0  0
  4 19  2  0  0  0  0
  4 20  1  0  0  0  0
  4 29  1  0  0  0  0
  5  6  1  0  0  0  0
  5  9  2  0  0  0  0
  5 17  1  0  0  0  0
  6  7  2  0  0  0  0
  6 21  1  0  0  0  0
  7 25  1  0  0  0  0
  8 18  1  0  0  0  0
  8 19  1  0  0  0  0
  9 22  1  0  0  0  0
  9 25  1  0  0  0  0
 10 18  1  0  0  0  0
 10 22  1  0  0  0  0
 10 23  2  0  0  0  0
 11 13  1  0  0  0  0
 11 15  1  0  0  0  0
 11 30  1  0  0  0  0
 11 31  1  0  0  0  0
 12 14  1  0  0  0  0
 12 15  1  0  0  0  0
 12 32  1  0  0  0  0
 12 33  1  0  0  0  0
 13 16  1  0  0  0  0
 13 34  1  0  0  0  0
 13 35  1  0  0  0  0
 14 16  1  0  0  0  0
 14 36  1  0  0  0  0
 14 37  1  0  0  0  0
 15 17  1  0  0  0  0
 15 38  1  1  0  0  0
 16 24  1  0  0  0  0
 16 39  1  6  0  0  0
 17 40  1  0  0  0  0
 17 41  1  0  0  0  0
 18 42  1  0  0  0  0
 18 43  1  0  0  0  0
 20 44  1  0  0  0  0
 21 45  1  0  0  0  0
 22 46  1  0  0  0  0
 24 47  1  0  0  0  0
M  END
>  <Chemgauss4 Score>
-4.76248836517334

>  <Number of Confs>
200

$$$$
