CHR-SOS-363-4
 OpenBabel03242009303D

 43 45  0  0  0  0  0  0  0  0999 V2000
    8.3720   -4.4471   27.5443 C   0  0  0  0  0  0  0  0  0  0  0  0
    6.8841    1.3883   18.5184 C   0  0  0  0  0  0  0  0  0  0  0  0
    7.2628    0.8894   19.7597 C   0  0  0  0  0  0  0  0  0  0  0  0
   10.5688   -2.9839   24.5061 C   0  0  0  0  0  0  0  0  0  0  0  0
   10.0051   -0.6366   24.6021 C   0  0  0  0  0  0  0  0  0  0  0  0
   11.6573   -2.6890   23.6852 C   0  0  0  0  0  0  0  0  0  0  0  0
   11.0937   -0.3416   23.7813 C   0  0  0  0  0  0  0  0  0  0  0  0
    6.0292    0.6204   17.7441 C   0  0  0  0  0  0  0  0  0  0  0  0
    6.9058   -5.4385   25.8661 C   0  0  0  0  0  0  0  0  0  0  0  0
    5.9314   -1.0348   19.3344 C   0  0  0  0  0  0  0  0  0  0  0  0
    6.4296   -4.4052   23.8702 C   0  0  0  0  0  0  0  0  0  0  0  0
    7.7215   -4.3952   26.2735 C   0  0  0  0  0  0  0  0  0  0  0  0
    6.7818   -0.3446   20.1830 C   0  0  0  0  0  0  0  0  0  0  0  0
    7.2228   -3.3133   24.1842 C   0  0  0  0  0  0  0  0  0  0  0  0
    9.7427   -1.9577   24.9645 C   0  0  0  0  0  0  0  0  0  0  0  0
    7.8778   -3.3161   25.4107 C   0  0  0  0  0  0  0  0  0  0  0  0
   11.9197   -1.3679   23.3228 C   0  0  0  0  0  0  0  0  0  0  0  0
    6.7543   -2.0994   22.0102 C   0  0  0  0  0  0  0  0  0  0  0  0
    8.9004   -4.4891   28.5766 N   0  0  0  0  0  0  0  0  0  0  0  0
    5.5414   -0.5825   18.1215 N   0  0  0  0  0  0  0  0  0  0  0  0
    6.2535   -5.4714   24.6824 N   0  0  0  0  0  0  0  0  0  0  0  0
   13.9267   -2.5596   22.0357 N   0  0  0  0  0  0  0  0  0  0  0  0
    7.1495   -0.8784   21.4407 N   0  0  0  0  0  0  0  0  0  0  0  0
    7.3496   -2.2536   23.2864 N   0  0  0  0  0  0  0  0  0  0  0  0
    6.0047   -2.9171   21.4861 O   0  0  0  0  0  0  0  0  0  0  0  0
   12.7761   -0.4835   21.0299 O   0  0  0  0  0  0  0  0  0  0  0  0
   14.2420   -0.2176   23.0617 O   0  0  0  0  0  0  0  0  0  0  0  0
    8.6807   -2.2453   25.7660 O   0  0  0  0  0  0  0  0  0  0  0  0
   13.2819   -0.9986   22.2944 S   0  0  0  0  0  0  0  0  0  0  0  0
    7.2467    2.3479   18.1680 H   0  0  0  0  0  0  0  0  0  0  0  0
    7.9324    1.4700   20.3887 H   0  0  0  0  0  0  0  0  0  0  0  0
   10.3697   -4.0150   24.7857 H   0  0  0  0  0  0  0  0  0  0  0  0
    9.3652    0.1671   24.9560 H   0  0  0  0  0  0  0  0  0  0  0  0
   12.2942   -3.4962   23.3338 H   0  0  0  0  0  0  0  0  0  0  0  0
   11.2889    0.6909   23.5047 H   0  0  0  0  0  0  0  0  0  0  0  0
    5.7049    0.9648   16.7677 H   0  0  0  0  0  0  0  0  0  0  0  0
    6.7420   -6.3105   26.4930 H   0  0  0  0  0  0  0  0  0  0  0  0
    5.5231   -2.0029   19.6091 H   0  0  0  0  0  0  0  0  0  0  0  0
    5.8933   -4.4614   22.9275 H   0  0  0  0  0  0  0  0  0  0  0  0
   13.8155   -2.9786   21.1043 H   0  0  0  0  0  0  0  0  0  0  0  0
   14.8152   -2.7960   22.4938 H   0  0  0  0  0  0  0  0  0  0  0  0
    7.7771   -0.3075   22.0011 H   0  0  0  0  0  0  0  0  0  0  0  0
    7.9510   -1.4752   23.5774 H   0  0  0  0  0  0  0  0  0  0  0  0
  1 12  1  0  0  0  0
  1 19  3  0  0  0  0
  2  3  2  0  0  0  0
  2  8  1  0  0  0  0
  2 30  1  0  0  0  0
  3 13  1  0  0  0  0
  3 31  1  0  0  0  0
  4  6  2  0  0  0  0
  4 15  1  0  0  0  0
  4 32  1  0  0  0  0
  5  7  1  0  0  0  0
  5 15  2  0  0  0  0
  5 33  1  0  0  0  0
  6 17  1  0  0  0  0
  6 34  1  0  0  0  0
  7 17  2  0  0  0  0
  7 35  1  0  0  0  0
  8 20  2  0  0  0  0
  8 36  1  0  0  0  0
  9 12  1  0  0  0  0
  9 21  2  0  0  0  0
  9 37  1  0  0  0  0
 10 13  2  0  0  0  0
 10 20  1  0  0  0  0
 10 38  1  0  0  0  0
 11 14  2  0  0  0  0
 11 21  1  0  0  0  0
 11 39  1  0  0  0  0
 12 16  2  0  0  0  0
 13 23  1  0  0  0  0
 14 16  1  0  0  0  0
 14 24  1  0  0  0  0
 15 28  1  0  0  0  0
 16 28  1  0  0  0  0
 17 29  1  0  0  0  0
 18 23  1  0  0  0  0
 18 24  1  0  0  0  0
 18 25  2  0  0  0  0
 22 29  1  0  0  0  0
 22 40  1  0  0  0  0
 22 41  1  0  0  0  0
 23 42  1  0  0  0  0
 24 43  1  0  0  0  0
 26 29  2  0  0  0  0
 27 29  2  0  0  0  0
M  END
>  <Chemgauss4 Score>
-4.6241340637207

>  <Number of Confs>
200

$$$$
