DAN-LON-a5f-2
 OpenBabel03242009303D

 41 43  0  0  1  0  0  0  0  0999 V2000
    9.4446   -0.5278   22.0033 C   0  0  0  0  0  0  0  0  0  0  0  0
    8.4578    0.0234   25.4999 C   0  0  0  0  0  0  0  0  0  0  0  0
    9.1782   -1.8438   22.3810 C   0  0  0  0  0  0  0  0  0  0  0  0
   10.7487   -0.0361   22.0606 C   0  0  0  0  0  0  0  0  0  0  0  0
    8.4355   -1.3947   25.3636 C   0  0  0  0  0  0  0  0  0  0  0  0
   11.5200   -2.1765   22.8734 C   0  0  0  0  0  0  0  0  0  0  0  0
    9.7068    0.4905   25.8453 C   0  0  0  0  0  0  0  0  0  0  0  0
   10.2159   -2.6682   22.8161 C   0  0  0  0  0  0  0  0  0  0  0  0
   11.7864   -0.8605   22.4957 C   0  0  0  0  0  0  0  0  0  0  0  0
    9.6686   -1.9575   25.6098 C   0  0  0  0  0  0  0  0  0  0  0  0
    7.9829   -4.4288   28.4268 C   0  0  0  0  0  0  0  0  0  0  0  0
    8.1687   -5.5757   26.1889 C   0  0  0  0  0  0  0  0  0  0  0  0
    9.0178   -5.5432   24.9177 C   0  0  0  0  0  0  0  0  0  0  0  0
    9.9564   -4.0495   26.9814 C   0  0  0  0  0  0  0  0  0  0  0  0
   10.0650   -3.4283   25.5681 C   0  0  1  0  0  0  0  0  0  0  0  0
    9.9282   -4.0843   23.2236 C   0  0  0  0  0  0  0  0  0  0  0  0
    6.6864   -5.1780   28.6170 C   0  0  0  0  0  0  0  0  0  0  0  0
    8.6528   -4.6613   27.2250 N   0  0  0  0  0  0  0  0  0  0  0  0
    9.2905   -4.1568   24.5374 N   0  0  0  0  0  0  0  0  0  0  0  0
    8.3792   -3.6619   29.3072 O   0  0  0  0  0  0  0  0  0  0  0  0
   10.8460   -0.7781   26.0038 S   0  0  0  0  0  0  0  0  0  0  0  0
   13.3950   -0.2529   22.5673 Cl  0  0  0  0  0  0  0  0  0  0  0  0
    7.0992   -6.7176   29.3632 Cl  0  0  0  0  0  0  0  0  0  0  0  0
    8.6363    0.1138   21.6647 H   0  0  0  0  0  0  0  0  0  0  0  0
    7.6019    0.6688   25.3515 H   0  0  0  0  0  0  0  0  0  0  0  0
    8.1591   -2.2185   22.3332 H   0  0  0  0  0  0  0  0  0  0  0  0
   10.9415    0.9918   21.7634 H   0  0  0  0  0  0  0  0  0  0  0  0
    7.5570   -1.9684   25.0966 H   0  0  0  0  0  0  0  0  0  0  0  0
   12.3257   -2.8234   23.2129 H   0  0  0  0  0  0  0  0  0  0  0  0
   10.0047    1.5160   26.0126 H   0  0  0  0  0  0  0  0  0  0  0  0
    7.1259   -5.2866   25.9641 H   0  0  0  0  0  0  0  0  0  0  0  0
    8.1236   -6.6086   26.5755 H   0  0  0  0  0  0  0  0  0  0  0  0
    9.9417   -6.0957   25.0883 H   0  0  0  0  0  0  0  0  0  0  0  0
    8.4588   -6.0439   24.1286 H   0  0  0  0  0  0  0  0  0  0  0  0
   10.7722   -4.7692   27.1268 H   0  0  0  0  0  0  0  0  0  0  0  0
   10.0903   -3.2780   27.7576 H   0  0  0  0  0  0  0  0  0  0  0  0
   11.1479   -3.4436   25.2708 H   0  0  0  0  0  0  0  0  0  0  0  0
    9.2636   -4.5672   22.4990 H   0  0  0  0  0  0  0  0  0  0  0  0
   10.8488   -4.6760   23.2652 H   0  0  0  0  0  0  0  0  0  0  0  0
    6.2313   -5.3445   27.6474 H   0  0  0  0  0  0  0  0  0  0  0  0
    6.0432   -4.6056   29.2754 H   0  0  0  0  0  0  0  0  0  0  0  0
  1  3  2  0  0  0  0
  1  4  1  0  0  0  0
  1 24  1  0  0  0  0
  2  5  1  0  0  0  0
  2  7  2  0  0  0  0
  2 25  1  0  0  0  0
  3  8  1  0  0  0  0
  3 26  1  0  0  0  0
  4  9  2  0  0  0  0
  4 27  1  0  0  0  0
  5 10  2  0  0  0  0
  5 28  1  0  0  0  0
  6  8  2  0  0  0  0
  6  9  1  0  0  0  0
  6 29  1  0  0  0  0
  7 21  1  0  0  0  0
  7 30  1  0  0  0  0
  8 16  1  0  0  0  0
  9 22  1  0  0  0  0
 10 15  1  0  0  0  0
 10 21  1  0  0  0  0
 11 17  1  0  0  0  0
 11 18  1  0  0  0  0
 11 20  2  0  0  0  0
 12 13  1  0  0  0  0
 12 18  1  0  0  0  0
 12 31  1  0  0  0  0
 12 32  1  0  0  0  0
 13 19  1  0  0  0  0
 13 33  1  0  0  0  0
 13 34  1  0  0  0  0
 14 15  1  0  0  0  0
 14 18  1  0  0  0  0
 14 35  1  0  0  0  0
 14 36  1  0  0  0  0
 15 19  1  0  0  0  0
 15 37  1  6  0  0  0
 16 19  1  0  0  0  0
 16 38  1  0  0  0  0
 16 39  1  0  0  0  0
 17 23  1  0  0  0  0
 17 40  1  0  0  0  0
 17 41  1  0  0  0  0
M  END
>  <Chemgauss4 Score>
-4.90708065032959

>  <Number of Confs>
182

$$$$
