SAL-INS-1c7-12
 OpenBabel03242009303D

 38 40  0  0  1  0  0  0  0  0999 V2000
    6.3678   -2.9461   22.8441 C   0  0  0  0  0  0  0  0  0  0  0  0
    5.4987   -3.8780   22.2067 C   0  0  0  0  0  0  0  0  0  0  0  0
    8.7671   -5.4420   25.2780 C   0  0  0  0  0  0  0  0  0  0  0  0
    8.9838   -5.2973   27.3904 C   0  0  0  0  0  0  0  0  0  0  0  0
    9.0736   -4.1249   25.5266 C   0  0  0  0  0  0  0  0  0  0  0  0
    6.2373   -2.9712   24.2152 C   0  0  0  0  0  0  0  0  0  0  0  0
    4.7371   -4.5802   23.1150 C   0  0  0  0  0  0  0  0  0  0  0  0
   11.8941   -0.8418   23.1629 C   0  0  0  0  0  0  0  0  0  0  0  0
   10.0370   -0.0817   24.6935 C   0  0  0  0  0  0  0  0  0  0  0  0
    8.8752   -0.6586   25.5069 C   0  0  0  0  0  0  0  0  0  0  0  0
   10.7327   -2.4604   24.6320 C   0  0  0  0  0  0  0  0  0  0  0  0
    9.2540   -2.9193   24.6091 C   0  0  2  0  0  0  0  0  0  0  0  0
    6.9673   -2.1503   25.2386 C   0  0  0  0  0  0  0  0  0  0  0  0
   12.6785   -2.0336   22.6700 C   0  0  0  0  0  0  0  0  0  0  0  0
    8.7124   -6.1665   26.4423 N   0  0  0  0  0  0  0  0  0  0  0  0
    9.2089   -4.0474   26.8841 N   0  0  0  0  0  0  0  0  0  0  0  0
   10.8930   -1.1112   24.0970 N   0  0  0  0  0  0  0  0  0  0  0  0
    8.3076   -1.7991   24.7990 N   0  0  0  0  0  0  0  0  0  0  0  0
   12.1664    0.2840   22.7401 O   0  0  0  0  0  0  0  0  0  0  0  0
    5.0710   -4.1150   24.7288 S   0  0  0  0  0  0  0  0  0  0  0  0
   13.8345   -1.4235   21.4914 Cl  0  0  0  0  0  0  0  0  0  0  0  0
    3.4632   -5.9097   22.6495 Br  0  0  0  0  0  0  0  0  0  0  0  0
    7.0526   -2.2921   22.3195 H   0  0  0  0  0  0  0  0  0  0  0  0
    5.4426   -4.0188   21.1344 H   0  0  0  0  0  0  0  0  0  0  0  0
    8.5825   -5.9079   24.3205 H   0  0  0  0  0  0  0  0  0  0  0  0
    9.0324   -5.5049   28.4499 H   0  0  0  0  0  0  0  0  0  0  0  0
    9.6386    0.5806   23.9108 H   0  0  0  0  0  0  0  0  0  0  0  0
   10.6850    0.5452   25.3250 H   0  0  0  0  0  0  0  0  0  0  0  0
    9.2158   -0.9372   26.4911 H   0  0  0  0  0  0  0  0  0  0  0  0
    8.1164    0.1019   25.6222 H   0  0  0  0  0  0  0  0  0  0  0  0
   11.1358   -2.4564   25.6553 H   0  0  0  0  0  0  0  0  0  0  0  0
   11.3373   -3.1837   24.0721 H   0  0  0  0  0  0  0  0  0  0  0  0
    9.0753   -3.3334   23.5889 H   0  0  0  0  0  0  0  0  0  0  0  0
    6.4259   -1.2207   25.4456 H   0  0  0  0  0  0  0  0  0  0  0  0
    7.0570   -2.6923   26.1859 H   0  0  0  0  0  0  0  0  0  0  0  0
   11.9973   -2.7314   22.1964 H   0  0  0  0  0  0  0  0  0  0  0  0
   13.2016   -2.4808   23.5076 H   0  0  0  0  0  0  0  0  0  0  0  0
    9.4355   -3.2193   27.4191 H   0  0  0  0  0  0  0  0  0  0  0  0
  1  2  1  0  0  0  0
  1  6  2  0  0  0  0
  1 23  1  0  0  0  0
  2  7  2  0  0  0  0
  2 24  1  0  0  0  0
  3  5  2  0  0  0  0
  3 15  1  0  0  0  0
  3 25  1  0  0  0  0
  4 15  2  0  0  0  0
  4 16  1  0  0  0  0
  4 26  1  0  0  0  0
  5 12  1  0  0  0  0
  5 16  1  0  0  0  0
  6 13  1  0  0  0  0
  6 20  1  0  0  0  0
  7 20  1  0  0  0  0
  7 22  1  0  0  0  0
  8 14  1  0  0  0  0
  8 17  1  0  0  0  0
  8 19  2  0  0  0  0
  9 10  1  0  0  0  0
  9 17  1  0  0  0  0
  9 27  1  0  0  0  0
  9 28  1  0  0  0  0
 10 18  1  0  0  0  0
 10 29  1  0  0  0  0
 10 30  1  0  0  0  0
 11 12  1  0  0  0  0
 11 17  1  0  0  0  0
 11 31  1  0  0  0  0
 11 32  1  0  0  0  0
 12 18  1  0  0  0  0
 12 33  1  6  0  0  0
 13 18  1  0  0  0  0
 13 34  1  0  0  0  0
 13 35  1  0  0  0  0
 14 21  1  0  0  0  0
 14 36  1  0  0  0  0
 14 37  1  0  0  0  0
 16 38  1  0  0  0  0
M  END
>  <Chemgauss4 Score>
-5.12542915344238

>  <Number of Confs>
190

$$$$
