ADA-UNI-f8e-7
 OpenBabel03242009303D

 43 44  0  0  1  0  0  0  0  0999 V2000
   12.4535    0.0959   24.5987 C   0  0  0  0  0  0  0  0  0  0  0  0
    8.0099   -5.7159   27.4637 C   0  0  0  0  0  0  0  0  0  0  0  0
   11.0936   -0.2045   24.6743 C   0  0  0  0  0  0  0  0  0  0  0  0
    8.2570   -4.7671   26.4779 C   0  0  0  0  0  0  0  0  0  0  0  0
   13.2116   -0.3677   23.5235 C   0  0  0  0  0  0  0  0  0  0  0  0
   11.2496   -1.4324   22.5994 C   0  0  0  0  0  0  0  0  0  0  0  0
    7.8452   -5.2708   28.7655 C   0  0  0  0  0  0  0  0  0  0  0  0
    8.1516   -3.0788   28.1496 C   0  0  0  0  0  0  0  0  0  0  0  0
   10.4916   -0.9687   23.6746 C   0  0  0  0  0  0  0  0  0  0  0  0
    8.3308   -3.4212   26.8190 C   0  0  0  0  0  0  0  0  0  0  0  0
   12.6096   -1.1319   22.5238 C   0  0  0  0  0  0  0  0  0  0  0  0
    8.7765   -2.6220   24.4733 C   0  0  0  0  0  0  0  0  0  0  0  0
    7.8162   -1.1951   17.8163 C   0  0  0  0  0  0  0  0  0  0  0  0
    6.5640   -1.2906   21.0108 C   0  0  0  0  0  0  0  0  0  0  0  0
    7.0764   -1.2099   22.4372 C   0  0  0  0  0  0  0  0  0  0  0  0
    9.0185   -1.2949   23.7578 C   0  0  2  0  0  0  0  0  0  0  0  0
    7.9099   -3.9721   29.1351 N   0  0  0  0  0  0  0  0  0  0  0  0
    8.5812   -2.4328   25.8381 N   0  0  0  0  0  0  0  0  0  0  0  0
    7.1474   -0.1969   20.2133 N   0  0  0  0  0  0  0  0  0  0  0  0
    8.7821   -3.6865   23.8619 O   0  0  0  0  0  0  0  0  0  0  0  0
    7.0514    1.2919   18.0994 O   0  0  0  0  0  0  0  0  0  0  0  0
    5.3583   -0.5507   18.4070 O   0  0  0  0  0  0  0  0  0  0  0  0
    8.4900   -1.3634   22.4405 O   0  0  0  0  0  0  0  0  0  0  0  0
    6.7029   -0.0332   18.5731 S   0  0  0  0  0  0  0  0  0  0  0  0
   13.5456   -1.7046   21.1981 Cl  0  0  0  0  0  0  0  0  0  0  0  0
   12.9219    0.6910   25.3774 H   0  0  0  0  0  0  0  0  0  0  0  0
    7.9481   -6.7706   27.2207 H   0  0  0  0  0  0  0  0  0  0  0  0
   10.5106    0.1608   25.5157 H   0  0  0  0  0  0  0  0  0  0  0  0
    8.3904   -5.0872   25.4478 H   0  0  0  0  0  0  0  0  0  0  0  0
   14.2706   -0.1260   23.4778 H   0  0  0  0  0  0  0  0  0  0  0  0
   10.7755   -2.0275   21.8223 H   0  0  0  0  0  0  0  0  0  0  0  0
    7.6512   -5.9713   29.5711 H   0  0  0  0  0  0  0  0  0  0  0  0
    8.1976   -2.0445   28.4775 H   0  0  0  0  0  0  0  0  0  0  0  0
    7.6367   -1.1930   16.7400 H   0  0  0  0  0  0  0  0  0  0  0  0
    8.8390   -0.8839   18.0340 H   0  0  0  0  0  0  0  0  0  0  0  0
    7.6194   -2.1832   18.2349 H   0  0  0  0  0  0  0  0  0  0  0  0
    6.8400   -2.2410   20.5432 H   0  0  0  0  0  0  0  0  0  0  0  0
    5.4752   -1.1842   20.9907 H   0  0  0  0  0  0  0  0  0  0  0  0
    6.6473   -2.0194   23.0359 H   0  0  0  0  0  0  0  0  0  0  0  0
    6.8252   -0.2507   22.9015 H   0  0  0  0  0  0  0  0  0  0  0  0
    8.4759   -0.4985   24.2815 H   0  0  0  0  0  0  0  0  0  0  0  0
    8.6170   -1.4767   26.1852 H   0  0  0  0  0  0  0  0  0  0  0  0
    8.1229    0.0211   20.4547 H   0  0  0  0  0  0  0  0  0  0  0  0
  1  3  2  0  0  0  0
  1  5  1  0  0  0  0
  1 26  1  0  0  0  0
  2  4  2  0  0  0  0
  2  7  1  0  0  0  0
  2 27  1  0  0  0  0
  3  9  1  0  0  0  0
  3 28  1  0  0  0  0
  4 10  1  0  0  0  0
  4 29  1  0  0  0  0
  5 11  2  0  0  0  0
  5 30  1  0  0  0  0
  6  9  2  0  0  0  0
  6 11  1  0  0  0  0
  6 31  1  0  0  0  0
  7 17  2  0  0  0  0
  7 32  1  0  0  0  0
  8 10  2  0  0  0  0
  8 17  1  0  0  0  0
  8 33  1  0  0  0  0
  9 16  1  0  0  0  0
 10 18  1  0  0  0  0
 11 25  1  0  0  0  0
 12 16  1  0  0  0  0
 12 18  1  0  0  0  0
 12 20  2  0  0  0  0
 13 24  1  0  0  0  0
 13 34  1  0  0  0  0
 13 35  1  0  0  0  0
 13 36  1  0  0  0  0
 14 15  1  0  0  0  0
 14 19  1  0  0  0  0
 14 37  1  0  0  0  0
 14 38  1  0  0  0  0
 15 23  1  0  0  0  0
 15 39  1  0  0  0  0
 15 40  1  0  0  0  0
 16 23  1  0  0  0  0
 16 41  1  1  0  0  0
 18 42  1  0  0  0  0
 19 24  1  0  0  0  0
 19 43  1  0  0  0  0
 21 24  2  0  0  0  0
 22 24  2  0  0  0  0
M  END
>  <Chemgauss4 Score>
-5.678466796875

>  <Number of Confs>
200

$$$$
