DAR-DIA-033-9
 OpenBabel03242009303D

 53 55  0  0  0  0  0  0  0  0999 V2000
   14.0241   -0.1452   22.8088 C   0  0  0  0  0  0  0  0  0  0  0  0
   13.6892   -1.0984   21.8472 C   0  0  0  0  0  0  0  0  0  0  0  0
   13.0266    0.4363   23.5915 C   0  0  0  0  0  0  0  0  0  0  0  0
   12.3567   -1.4702   21.6682 C   0  0  0  0  0  0  0  0  0  0  0  0
   11.6942    0.0646   23.4125 C   0  0  0  0  0  0  0  0  0  0  0  0
    9.2204   -3.2171   28.0109 C   0  0  0  0  0  0  0  0  0  0  0  0
    8.0931   -2.4837   28.3442 C   0  0  0  0  0  0  0  0  0  0  0  0
    7.9981   -1.5154   26.2630 C   0  0  0  0  0  0  0  0  0  0  0  0
   11.3592   -0.8887   22.4508 C   0  0  0  0  0  0  0  0  0  0  0  0
    9.7380   -3.0685   26.7290 C   0  0  0  0  0  0  0  0  0  0  0  0
    9.1212   -2.2032   25.8322 C   0  0  0  0  0  0  0  0  0  0  0  0
    9.0887   -1.1883   23.5270 C   0  0  0  0  0  0  0  0  0  0  0  0
    8.3668   -5.5447   25.1376 C   0  0  0  0  0  0  0  0  0  0  0  0
    5.9286   -5.0457   21.6964 C   0  0  0  0  0  0  0  0  0  0  0  0
    5.4532   -4.8233   23.1291 C   0  0  0  0  0  0  0  0  0  0  0  0
    7.4500   -4.9656   21.6175 C   0  0  0  0  0  0  0  0  0  0  0  0
    6.1383   -5.7911   24.0876 C   0  0  0  0  0  0  0  0  0  0  0  0
    8.1201   -5.9156   22.6103 C   0  0  0  0  0  0  0  0  0  0  0  0
    9.9201   -1.2895   22.2579 C   0  0  0  0  0  0  0  0  0  0  0  0
   10.9656   -3.8546   26.3390 C   0  0  0  0  0  0  0  0  0  0  0  0
   10.6651   -5.3231   26.0489 C   0  0  0  0  0  0  0  0  0  0  0  0
    7.4664   -1.6337   27.5003 N   0  0  0  0  0  0  0  0  0  0  0  0
    7.5986   -5.7207   23.9729 N   0  0  0  0  0  0  0  0  0  0  0  0
    9.6023   -2.0207   24.5360 N   0  0  0  0  0  0  0  0  0  0  0  0
    9.7427   -5.4938   24.9485 N   0  0  0  0  0  0  0  0  0  0  0  0
    8.1042   -0.4609   23.6096 O   0  0  0  0  0  0  0  0  0  0  0  0
    7.8641   -5.4459   26.2621 O   0  0  0  0  0  0  0  0  0  0  0  0
   15.0618    0.1432   22.9490 H   0  0  0  0  0  0  0  0  0  0  0  0
   14.4658   -1.5521   21.2384 H   0  0  0  0  0  0  0  0  0  0  0  0
   13.2871    1.1777   24.3410 H   0  0  0  0  0  0  0  0  0  0  0  0
   12.1050   -2.2136   20.9164 H   0  0  0  0  0  0  0  0  0  0  0  0
   10.9237    0.5230   24.0268 H   0  0  0  0  0  0  0  0  0  0  0  0
    9.6780   -3.8835   28.7341 H   0  0  0  0  0  0  0  0  0  0  0  0
    7.6504   -2.5638   29.3316 H   0  0  0  0  0  0  0  0  0  0  0  0
    7.4723   -0.8260   25.6090 H   0  0  0  0  0  0  0  0  0  0  0  0
    5.5872   -6.0231   21.3379 H   0  0  0  0  0  0  0  0  0  0  0  0
    5.4849   -4.2874   21.0397 H   0  0  0  0  0  0  0  0  0  0  0  0
    5.6644   -3.7940   23.4292 H   0  0  0  0  0  0  0  0  0  0  0  0
    4.3693   -4.9628   23.1808 H   0  0  0  0  0  0  0  0  0  0  0  0
    7.7832   -5.2072   20.5975 H   0  0  0  0  0  0  0  0  0  0  0  0
    7.7752   -3.9356   21.8190 H   0  0  0  0  0  0  0  0  0  0  0  0
    5.8832   -5.5470   25.1276 H   0  0  0  0  0  0  0  0  0  0  0  0
    5.7539   -6.7934   23.8839 H   0  0  0  0  0  0  0  0  0  0  0  0
    7.9819   -6.9479   22.2814 H   0  0  0  0  0  0  0  0  0  0  0  0
    9.1975   -5.7262   22.6499 H   0  0  0  0  0  0  0  0  0  0  0  0
    9.4621   -0.6575   21.4863 H   0  0  0  0  0  0  0  0  0  0  0  0
    9.8731   -2.3210   21.8865 H   0  0  0  0  0  0  0  0  0  0  0  0
   11.6953   -3.7884   27.1560 H   0  0  0  0  0  0  0  0  0  0  0  0
   11.4440   -3.3879   25.4685 H   0  0  0  0  0  0  0  0  0  0  0  0
   11.5867   -5.8447   25.7721 H   0  0  0  0  0  0  0  0  0  0  0  0
   10.2360   -5.8275   26.9209 H   0  0  0  0  0  0  0  0  0  0  0  0
   10.4379   -2.5633   24.2874 H   0  0  0  0  0  0  0  0  0  0  0  0
   10.1110   -5.5789   24.0103 H   0  0  0  0  0  0  0  0  0  0  0  0
  1  2  1  0  0  0  0
  1  3  2  0  0  0  0
  1 28  1  0  0  0  0
  2  4  2  0  0  0  0
  2 29  1  0  0  0  0
  3  5  1  0  0  0  0
  3 30  1  0  0  0  0
  4  9  1  0  0  0  0
  4 31  1  0  0  0  0
  5  9  2  0  0  0  0
  5 32  1  0  0  0  0
  6  7  2  0  0  0  0
  6 10  1  0  0  0  0
  6 33  1  0  0  0  0
  7 22  1  0  0  0  0
  7 34  1  0  0  0  0
  8 11  1  0  0  0  0
  8 22  2  0  0  0  0
  8 35  1  0  0  0  0
  9 19  1  0  0  0  0
 10 11  2  0  0  0  0
 10 20  1  0  0  0  0
 11 24  1  0  0  0  0
 12 19  1  0  0  0  0
 12 24  1  0  0  0  0
 12 26  2  0  0  0  0
 13 23  1  0  0  0  0
 13 25  1  0  0  0  0
 13 27  2  0  0  0  0
 14 15  1  0  0  0  0
 14 16  1  0  0  0  0
 14 36  1  0  0  0  0
 14 37  1  0  0  0  0
 15 17  1  0  0  0  0
 15 38  1  0  0  0  0
 15 39  1  0  0  0  0
 16 18  1  0  0  0  0
 16 40  1  0  0  0  0
 16 41  1  0  0  0  0
 17 23  1  0  0  0  0
 17 42  1  0  0  0  0
 17 43  1  0  0  0  0
 18 23  1  0  0  0  0
 18 44  1  0  0  0  0
 18 45  1  0  0  0  0
 19 46  1  0  0  0  0
 19 47  1  0  0  0  0
 20 21  1  0  0  0  0
 20 48  1  0  0  0  0
 20 49  1  0  0  0  0
 21 25  1  0  0  0  0
 21 50  1  0  0  0  0
 21 51  1  0  0  0  0
 24 52  1  0  0  0  0
 25 53  1  0  0  0  0
M  END
>  <Chemgauss4 Score>
-4.95688915252686

>  <Number of Confs>
200

$$$$
