GIA-UNK-eaa-1
 OpenBabel03242009303D

 44 46  0  0  0  0  0  0  0  0999 V2000
   13.4573    0.0965   23.2112 C   0  0  0  0  0  0  0  0  0  0  0  0
   12.3808    0.4258   24.0349 C   0  0  0  0  0  0  0  0  0  0  0  0
   13.3407   -0.9497   22.2960 C   0  0  0  0  0  0  0  0  0  0  0  0
   11.1878   -0.2911   23.9434 C   0  0  0  0  0  0  0  0  0  0  0  0
   12.1476   -1.6666   22.2045 C   0  0  0  0  0  0  0  0  0  0  0  0
   11.0712   -1.3373   23.0282 C   0  0  0  0  0  0  0  0  0  0  0  0
    9.8154   -2.0919   22.9321 C   0  0  0  0  0  0  0  0  0  0  0  0
    8.4014   -5.7014   26.8613 C   0  0  0  0  0  0  0  0  0  0  0  0
    8.2709   -3.8183   28.4755 C   0  0  0  0  0  0  0  0  0  0  0  0
    8.1062   -6.2159   29.2682 C   0  0  0  0  0  0  0  0  0  0  0  0
   10.0286   -2.7787   25.3792 C   0  0  0  0  0  0  0  0  0  0  0  0
    8.0843   -3.4734   24.0333 C   0  0  0  0  0  0  0  0  0  0  0  0
   10.2114   -4.2135   25.8679 C   0  0  0  0  0  0  0  0  0  0  0  0
    8.2576   -4.9090   24.5206 C   0  0  0  0  0  0  0  0  0  0  0  0
    6.7672   -3.7248   28.7125 C   0  0  0  0  0  0  0  0  0  0  0  0
    6.6131   -5.9644   29.4506 C   0  0  0  0  0  0  0  0  0  0  0  0
    8.7433   -5.2531   28.2729 C   0  0  0  0  0  0  0  0  0  0  0  0
    9.3634   -2.7634   24.0691 N   0  0  0  0  0  0  0  0  0  0  0  0
    8.9366   -4.9449   25.8198 N   0  0  0  0  0  0  0  0  0  0  0  0
    9.2564   -2.0808   21.8364 O   0  0  0  0  0  0  0  0  0  0  0  0
    7.6802   -6.6892   26.7000 O   0  0  0  0  0  0  0  0  0  0  0  0
    6.3640   -4.5965   29.7663 O   0  0  0  0  0  0  0  0  0  0  0  0
   14.3862    0.6546   23.2825 H   0  0  0  0  0  0  0  0  0  0  0  0
   12.4719    1.2403   24.7475 H   0  0  0  0  0  0  0  0  0  0  0  0
   14.1787   -1.2060   21.6545 H   0  0  0  0  0  0  0  0  0  0  0  0
   10.3552   -0.0260   24.5900 H   0  0  0  0  0  0  0  0  0  0  0  0
   12.0681   -2.4800   21.4878 H   0  0  0  0  0  0  0  0  0  0  0  0
    8.5545   -3.1794   27.6318 H   0  0  0  0  0  0  0  0  0  0  0  0
    8.7795   -3.4266   29.3656 H   0  0  0  0  0  0  0  0  0  0  0  0
    8.5979   -6.0620   30.2370 H   0  0  0  0  0  0  0  0  0  0  0  0
    8.2748   -7.2591   28.9791 H   0  0  0  0  0  0  0  0  0  0  0  0
    9.3959   -2.2140   26.0746 H   0  0  0  0  0  0  0  0  0  0  0  0
   10.9998   -2.2790   25.3422 H   0  0  0  0  0  0  0  0  0  0  0  0
    7.6709   -3.4713   23.0197 H   0  0  0  0  0  0  0  0  0  0  0  0
    7.3843   -2.9281   24.6774 H   0  0  0  0  0  0  0  0  0  0  0  0
   10.9170   -4.7508   25.2231 H   0  0  0  0  0  0  0  0  0  0  0  0
   10.6354   -4.2010   26.8734 H   0  0  0  0  0  0  0  0  0  0  0  0
    7.2810   -5.3998   24.5793 H   0  0  0  0  0  0  0  0  0  0  0  0
    8.8711   -5.4828   23.8157 H   0  0  0  0  0  0  0  0  0  0  0  0
    6.5010   -2.7035   29.0035 H   0  0  0  0  0  0  0  0  0  0  0  0
    6.2024   -3.9637   27.8038 H   0  0  0  0  0  0  0  0  0  0  0  0
    6.0434   -6.2437   28.5569 H   0  0  0  0  0  0  0  0  0  0  0  0
    6.2353   -6.5717   30.2796 H   0  0  0  0  0  0  0  0  0  0  0  0
    9.8220   -5.3063   28.3422 H   0  0  0  0  0  0  0  0  0  0  0  0
  1  2  1  0  0  0  0
  1  3  2  0  0  0  0
  1 23  1  0  0  0  0
  2  4  2  0  0  0  0
  2 24  1  0  0  0  0
  3  5  1  0  0  0  0
  3 25  1  0  0  0  0
  4  6  1  0  0  0  0
  4 26  1  0  0  0  0
  5  6  2  0  0  0  0
  5 27  1  0  0  0  0
  6  7  1  0  0  0  0
  7 18  1  0  0  0  0
  7 20  2  0  0  0  0
  8 17  1  0  0  0  0
  8 19  1  0  0  0  0
  8 21  2  0  0  0  0
  9 15  1  0  0  0  0
  9 17  1  0  0  0  0
  9 28  1  0  0  0  0
  9 29  1  0  0  0  0
 10 16  1  0  0  0  0
 10 17  1  0  0  0  0
 10 30  1  0  0  0  0
 10 31  1  0  0  0  0
 11 13  1  0  0  0  0
 11 18  1  0  0  0  0
 11 32  1  0  0  0  0
 11 33  1  0  0  0  0
 12 14  1  0  0  0  0
 12 18  1  0  0  0  0
 12 34  1  0  0  0  0
 12 35  1  0  0  0  0
 13 19  1  0  0  0  0
 13 36  1  0  0  0  0
 13 37  1  0  0  0  0
 14 19  1  0  0  0  0
 14 38  1  0  0  0  0
 14 39  1  0  0  0  0
 15 22  1  0  0  0  0
 15 40  1  0  0  0  0
 15 41  1  0  0  0  0
 16 22  1  0  0  0  0
 16 42  1  0  0  0  0
 16 43  1  0  0  0  0
 17 44  1  0  0  0  0
M  END
>  <Chemgauss4 Score>
-5.28584909439087

>  <Number of Confs>
105

$$$$
