MIH-UNI-6b9-6
 OpenBabel03242009303D

 30 31  0  0  0  0  0  0  0  0999 V2000
    5.9110   -3.9419   26.3191 C   0  0  0  0  0  0  0  0  0  0  0  0
    6.8096   -3.4620   27.2717 C   0  0  0  0  0  0  0  0  0  0  0  0
    6.3750   -4.6896   25.2367 C   0  0  0  0  0  0  0  0  0  0  0  0
    8.1725   -3.7295   27.1420 C   0  0  0  0  0  0  0  0  0  0  0  0
    7.7378   -4.9571   25.1070 C   0  0  0  0  0  0  0  0  0  0  0  0
   12.1753   -0.7905   22.4168 C   0  0  0  0  0  0  0  0  0  0  0  0
   13.0793    0.0706   22.9941 C   0  0  0  0  0  0  0  0  0  0  0  0
   11.5350   -0.2789   24.4916 C   0  0  0  0  0  0  0  0  0  0  0  0
    8.6366   -4.4771   26.0597 C   0  0  0  0  0  0  0  0  0  0  0  0
   11.1723   -1.0173   23.3893 C   0  0  0  0  0  0  0  0  0  0  0  0
   10.0937   -4.7634   25.9203 C   0  0  0  0  0  0  0  0  0  0  0  0
   10.8531   -3.7005   25.1167 C   0  0  0  0  0  0  0  0  0  0  0  0
   10.3374   -3.5523   23.7822 N   0  0  0  0  0  0  0  0  0  0  0  0
    8.7384   -1.5615   24.1576 O   0  0  0  0  0  0  0  0  0  0  0  0
    9.4372   -2.1160   21.8063 O   0  0  0  0  0  0  0  0  0  0  0  0
   12.6964    0.3872   24.2589 O   0  0  0  0  0  0  0  0  0  0  0  0
    9.7394   -2.0390   23.2228 S   0  0  0  0  0  0  0  0  0  0  0  0
    4.8497   -3.7346   26.4209 H   0  0  0  0  0  0  0  0  0  0  0  0
    6.4484   -2.8808   28.1151 H   0  0  0  0  0  0  0  0  0  0  0  0
    5.6755   -5.0643   24.4954 H   0  0  0  0  0  0  0  0  0  0  0  0
    8.8654   -3.3513   27.8890 H   0  0  0  0  0  0  0  0  0  0  0  0
    8.0903   -5.5403   24.2604 H   0  0  0  0  0  0  0  0  0  0  0  0
   12.2350   -1.2011   21.4188 H   0  0  0  0  0  0  0  0  0  0  0  0
   13.9983    0.5267   22.6559 H   0  0  0  0  0  0  0  0  0  0  0  0
   11.0995   -0.1274   25.4688 H   0  0  0  0  0  0  0  0  0  0  0  0
   10.2286   -5.7395   25.4246 H   0  0  0  0  0  0  0  0  0  0  0  0
   10.5642   -4.8759   26.9122 H   0  0  0  0  0  0  0  0  0  0  0  0
   10.7676   -2.7215   25.5987 H   0  0  0  0  0  0  0  0  0  0  0  0
   11.9164   -3.9487   25.0344 H   0  0  0  0  0  0  0  0  0  0  0  0
   10.6846   -4.2124   23.0551 H   0  0  0  0  0  0  0  0  0  0  0  0
  1  2  1  0  0  0  0
  1  3  2  0  0  0  0
  1 18  1  0  0  0  0
  2  4  2  0  0  0  0
  2 19  1  0  0  0  0
  3  5  1  0  0  0  0
  3 20  1  0  0  0  0
  4  9  1  0  0  0  0
  4 21  1  0  0  0  0
  5  9  2  0  0  0  0
  5 22  1  0  0  0  0
  6  7  2  0  0  0  0
  6 10  1  0  0  0  0
  6 23  1  0  0  0  0
  7 16  1  0  0  0  0
  7 24  1  0  0  0  0
  8 10  2  0  0  0  0
  8 16  1  0  0  0  0
  8 25  1  0  0  0  0
  9 11  1  0  0  0  0
 10 17  1  0  0  0  0
 11 12  1  0  0  0  0
 11 26  1  0  0  0  0
 11 27  1  0  0  0  0
 12 13  1  0  0  0  0
 12 28  1  0  0  0  0
 12 29  1  0  0  0  0
 13 17  1  0  0  0  0
 13 30  1  0  0  0  0
 14 17  2  0  0  0  0
 15 17  2  0  0  0  0
M  END
>  <Chemgauss4 Score>
-4.53958511352539

>  <Number of Confs>
126

$$$$
