DUN-NEW-f8c-3
 OpenBabel03242009303D

 47 49  0  0  1  0  0  0  0  0999 V2000
    5.0761   -3.5138   23.0060 C   0  0  0  0  0  0  0  0  0  0  0  0
    4.6422   -4.1441   24.1722 C   0  0  0  0  0  0  0  0  0  0  0  0
    6.3071   -2.8581   22.9842 C   0  0  0  0  0  0  0  0  0  0  0  0
    5.4392   -4.1187   25.3166 C   0  0  0  0  0  0  0  0  0  0  0  0
    7.1041   -2.8327   24.1286 C   0  0  0  0  0  0  0  0  0  0  0  0
    6.6702   -3.4630   25.2948 C   0  0  0  0  0  0  0  0  0  0  0  0
    8.9055   -5.3817   26.2133 C   0  0  0  0  0  0  0  0  0  0  0  0
   12.1120   -0.1573   24.1749 C   0  0  0  0  0  0  0  0  0  0  0  0
    8.2767   -2.6000   28.4638 C   0  0  0  0  0  0  0  0  0  0  0  0
    9.2056   -3.7103   28.0019 C   0  0  0  0  0  0  0  0  0  0  0  0
    6.9867   -2.8700   27.6994 C   0  0  0  0  0  0  0  0  0  0  0  0
    9.3762   -2.5787   23.1450 C   0  0  0  0  0  0  0  0  0  0  0  0
    8.5896   -1.0214   24.9557 C   0  0  0  0  0  0  0  0  0  0  0  0
   10.7615   -2.2376   23.6945 C   0  0  0  0  0  0  0  0  0  0  0  0
    9.6504   -0.1100   24.3424 C   0  0  0  0  0  0  0  0  0  0  0  0
    8.8273   -3.9229   26.5328 C   0  0  2  0  0  0  0  0  0  0  0  0
   13.3480   -0.9703   23.8775 C   0  0  0  0  0  0  0  0  0  0  0  0
    8.3292   -2.1715   24.0854 N   0  0  0  0  0  0  0  0  0  0  0  0
    7.4437   -3.4499   26.4389 N   0  0  0  0  0  0  0  0  0  0  0  0
   10.8926   -0.8270   24.0662 N   0  0  0  0  0  0  0  0  0  0  0  0
    8.0503   -6.1591   26.9580 N   0  0  0  0  0  0  0  0  0  0  0  0
    9.6597   -5.8212   25.3487 O   0  0  0  0  0  0  0  0  0  0  0  0
   12.2239    1.0303   24.4877 O   0  0  0  0  0  0  0  0  0  0  0  0
   13.6399   -0.8267   22.1482 Cl  0  0  0  0  0  0  0  0  0  0  0  0
    4.4557   -3.5340   22.1148 H   0  0  0  0  0  0  0  0  0  0  0  0
    3.6841   -4.6553   24.1888 H   0  0  0  0  0  0  0  0  0  0  0  0
    6.6345   -2.3703   22.0695 H   0  0  0  0  0  0  0  0  0  0  0  0
    5.0907   -4.6140   26.2194 H   0  0  0  0  0  0  0  0  0  0  0  0
    8.0984   -2.6776   29.5430 H   0  0  0  0  0  0  0  0  0  0  0  0
    8.6835   -1.6057   28.2562 H   0  0  0  0  0  0  0  0  0  0  0  0
   10.2479   -3.3737   28.0720 H   0  0  0  0  0  0  0  0  0  0  0  0
    9.0920   -4.6118   28.6136 H   0  0  0  0  0  0  0  0  0  0  0  0
    6.3237   -3.5554   28.2398 H   0  0  0  0  0  0  0  0  0  0  0  0
    6.4496   -1.9290   27.5216 H   0  0  0  0  0  0  0  0  0  0  0  0
    9.2251   -2.0784   22.1800 H   0  0  0  0  0  0  0  0  0  0  0  0
    9.3186   -3.6597   22.9691 H   0  0  0  0  0  0  0  0  0  0  0  0
    8.9209   -1.3831   25.9366 H   0  0  0  0  0  0  0  0  0  0  0  0
    7.6741   -0.4392   25.1193 H   0  0  0  0  0  0  0  0  0  0  0  0
   10.9711   -2.8302   24.5932 H   0  0  0  0  0  0  0  0  0  0  0  0
   11.5196   -2.4951   22.9487 H   0  0  0  0  0  0  0  0  0  0  0  0
    9.2972    0.3113   23.3933 H   0  0  0  0  0  0  0  0  0  0  0  0
    9.8491    0.7325   25.0139 H   0  0  0  0  0  0  0  0  0  0  0  0
    9.5308   -3.3881   25.8800 H   0  0  0  0  0  0  0  0  0  0  0  0
   13.1581   -2.0047   24.1390 H   0  0  0  0  0  0  0  0  0  0  0  0
   14.1814   -0.5559   24.4323 H   0  0  0  0  0  0  0  0  0  0  0  0
    7.4524   -5.7072   27.6421 H   0  0  0  0  0  0  0  0  0  0  0  0
    7.9929   -7.1666   26.8509 H   0  0  0  0  0  0  0  0  0  0  0  0
  1  2  1  0  0  0  0
  1  3  2  0  0  0  0
  1 25  1  0  0  0  0
  2  4  2  0  0  0  0
  2 26  1  0  0  0  0
  3  5  1  0  0  0  0
  3 27  1  0  0  0  0
  4  6  1  0  0  0  0
  4 28  1  0  0  0  0
  5  6  2  0  0  0  0
  5 18  1  0  0  0  0
  6 19  1  0  0  0  0
  7 16  1  0  0  0  0
  7 21  1  0  0  0  0
  7 22  2  0  0  0  0
  8 17  1  0  0  0  0
  8 20  1  0  0  0  0
  8 23  2  0  0  0  0
  9 10  1  0  0  0  0
  9 11  1  0  0  0  0
  9 29  1  0  0  0  0
  9 30  1  0  0  0  0
 10 16  1  0  0  0  0
 10 31  1  0  0  0  0
 10 32  1  0  0  0  0
 11 19  1  0  0  0  0
 11 33  1  0  0  0  0
 11 34  1  0  0  0  0
 12 14  1  0  0  0  0
 12 18  1  0  0  0  0
 12 35  1  0  0  0  0
 12 36  1  0  0  0  0
 13 15  1  0  0  0  0
 13 18  1  0  0  0  0
 13 37  1  0  0  0  0
 13 38  1  0  0  0  0
 14 20  1  0  0  0  0
 14 39  1  0  0  0  0
 14 40  1  0  0  0  0
 15 20  1  0  0  0  0
 15 41  1  0  0  0  0
 15 42  1  0  0  0  0
 16 19  1  0  0  0  0
 16 43  1  6  0  0  0
 17 24  1  0  0  0  0
 17 44  1  0  0  0  0
 17 45  1  0  0  0  0
 21 46  1  0  0  0  0
 21 47  1  0  0  0  0
M  END
>  <Chemgauss4 Score>
-5.6556715965271

>  <Number of Confs>
139

$$$$
