DAR-DIA-23a-16
 OpenBabel03242009303D

 27 28  0  0  0  0  0  0  0  0999 V2000
   13.0741   -0.5072   22.5707 C   0  0  0  0  0  0  0  0  0  0  0  0
   12.1462   -1.5258   22.7568 C   0  0  0  0  0  0  0  0  0  0  0  0
    8.0822   -3.6020   27.1058 C   0  0  0  0  0  0  0  0  0  0  0  0
   12.8882    0.6751   23.2688 C   0  0  0  0  0  0  0  0  0  0  0  0
    8.0065   -5.6961   25.9808 C   0  0  0  0  0  0  0  0  0  0  0  0
   10.9794   -0.1145   24.2744 C   0  0  0  0  0  0  0  0  0  0  0  0
    7.8848   -5.6637   28.2748 C   0  0  0  0  0  0  0  0  0  0  0  0
    8.1000   -4.3154   25.9125 C   0  0  0  0  0  0  0  0  0  0  0  0
   11.0757   -1.3337   23.6232 C   0  0  0  0  0  0  0  0  0  0  0  0
    7.9729   -4.2815   28.3140 C   0  0  0  0  0  0  0  0  0  0  0  0
    8.9979   -2.3064   24.6631 C   0  0  0  0  0  0  0  0  0  0  0  0
    8.2157   -3.6178   24.6038 C   0  0  0  0  0  0  0  0  0  0  0  0
   11.8611    0.8985   24.1189 N   0  0  0  0  0  0  0  0  0  0  0  0
    7.8990   -6.3911   27.1354 N   0  0  0  0  0  0  0  0  0  0  0  0
   10.1151   -2.3515   23.8330 N   0  0  0  0  0  0  0  0  0  0  0  0
    8.6365   -1.3726   25.3721 O   0  0  0  0  0  0  0  0  0  0  0  0
    7.9455   -3.4358   29.8053 Cl  0  0  0  0  0  0  0  0  0  0  0  0
   13.9163   -0.6349   21.9002 H   0  0  0  0  0  0  0  0  0  0  0  0
   12.2665   -2.4644   22.2223 H   0  0  0  0  0  0  0  0  0  0  0  0
    8.1541   -2.5169   27.0893 H   0  0  0  0  0  0  0  0  0  0  0  0
   13.5838    1.5004   23.1576 H   0  0  0  0  0  0  0  0  0  0  0  0
    8.0157   -6.3059   25.0825 H   0  0  0  0  0  0  0  0  0  0  0  0
   10.1663    0.0950   24.9631 H   0  0  0  0  0  0  0  0  0  0  0  0
    7.7973   -6.2519   29.1835 H   0  0  0  0  0  0  0  0  0  0  0  0
    8.7055   -4.2697   23.8597 H   0  0  0  0  0  0  0  0  0  0  0  0
    7.2145   -3.3972   24.1945 H   0  0  0  0  0  0  0  0  0  0  0  0
   10.2573   -3.2174   23.3170 H   0  0  0  0  0  0  0  0  0  0  0  0
  1  2  2  0  0  0  0
  1  4  1  0  0  0  0
  1 18  1  0  0  0  0
  2  9  1  0  0  0  0
  2 19  1  0  0  0  0
  3  8  2  0  0  0  0
  3 10  1  0  0  0  0
  3 20  1  0  0  0  0
  4 13  2  0  0  0  0
  4 21  1  0  0  0  0
  5  8  1  0  0  0  0
  5 14  2  0  0  0  0
  5 22  1  0  0  0  0
  6  9  2  0  0  0  0
  6 13  1  0  0  0  0
  6 23  1  0  0  0  0
  7 10  2  0  0  0  0
  7 14  1  0  0  0  0
  7 24  1  0  0  0  0
  8 12  1  0  0  0  0
  9 15  1  0  0  0  0
 10 17  1  0  0  0  0
 11 12  1  0  0  0  0
 11 15  1  0  0  0  0
 11 16  2  0  0  0  0
 12 25  1  0  0  0  0
 12 26  1  0  0  0  0
 15 27  1  0  0  0  0
M  END
>  <Chemgauss4 Score>
-4.65907859802246

>  <Number of Confs>
40

$$$$
