CHR-SOS-709-5
 OpenBabel03242009303D

 29 30  0  0  0  0  0  0  0  0999 V2000
   13.2517   -1.0572   22.2190 C   0  0  0  0  0  0  0  0  0  0  0  0
   13.5975   -0.1614   23.2307 C   0  0  0  0  0  0  0  0  0  0  0  0
   12.0353   -1.7375   22.2755 C   0  0  0  0  0  0  0  0  0  0  0  0
    7.5431   -3.9945   23.9341 C   0  0  0  0  0  0  0  0  0  0  0  0
    8.6288   -4.6605   25.9871 C   0  0  0  0  0  0  0  0  0  0  0  0
    6.4649   -4.8269   24.2342 C   0  0  0  0  0  0  0  0  0  0  0  0
    7.5505   -5.4929   26.2873 C   0  0  0  0  0  0  0  0  0  0  0  0
   12.7270    0.0541   24.2990 C   0  0  0  0  0  0  0  0  0  0  0  0
   11.1647   -1.5220   23.3439 C   0  0  0  0  0  0  0  0  0  0  0  0
    8.6251   -3.9113   24.8105 C   0  0  0  0  0  0  0  0  0  0  0  0
    6.4685   -5.5761   25.4108 C   0  0  0  0  0  0  0  0  0  0  0  0
   11.5105   -0.6262   24.3556 C   0  0  0  0  0  0  0  0  0  0  0  0
    9.8999   -2.2426   23.3835 C   0  0  0  0  0  0  0  0  0  0  0  0
    9.7210   -3.0653   24.5055 N   0  0  0  0  0  0  0  0  0  0  0  0
    5.3708   -6.4234   25.7164 N   0  3  0  0  0  0  0  0  0  0  0  0
    4.4075   -6.4837   24.9146 O   0  5  0  0  0  0  0  0  0  0  0  0
    9.0712   -2.1506   22.4686 O   0  0  0  0  0  0  0  0  0  0  0  0
    5.3938   -7.0885   26.7803 O   0  0  0  0  0  0  0  0  0  0  0  0
   10.6724   -0.4008   25.4066 O   0  0  0  0  0  0  0  0  0  0  0  0
   13.9300   -1.2248   21.3871 H   0  0  0  0  0  0  0  0  0  0  0  0
   14.5450    0.3675   23.1863 H   0  0  0  0  0  0  0  0  0  0  0  0
   11.7761   -2.4329   21.4812 H   0  0  0  0  0  0  0  0  0  0  0  0
    7.5296   -3.4152   23.0144 H   0  0  0  0  0  0  0  0  0  0  0  0
    9.4666   -4.6034   26.6774 H   0  0  0  0  0  0  0  0  0  0  0  0
    5.6280   -4.8825   23.5424 H   0  0  0  0  0  0  0  0  0  0  0  0
    7.5661   -6.0714   27.2078 H   0  0  0  0  0  0  0  0  0  0  0  0
   13.0024    0.7534   25.0838 H   0  0  0  0  0  0  0  0  0  0  0  0
   10.4748   -3.0534   25.1881 H   0  0  0  0  0  0  0  0  0  0  0  0
   11.0636    0.2468   26.0134 H   0  0  0  0  0  0  0  0  0  0  0  0
  1  2  1  0  0  0  0
  1  3  2  0  0  0  0
  1 20  1  0  0  0  0
  2  8  2  0  0  0  0
  2 21  1  0  0  0  0
  3  9  1  0  0  0  0
  3 22  1  0  0  0  0
  4  6  2  0  0  0  0
  4 10  1  0  0  0  0
  4 23  1  0  0  0  0
  5  7  1  0  0  0  0
  5 10  2  0  0  0  0
  5 24  1  0  0  0  0
  6 11  1  0  0  0  0
  6 25  1  0  0  0  0
  7 11  2  0  0  0  0
  7 26  1  0  0  0  0
  8 12  1  0  0  0  0
  8 27  1  0  0  0  0
  9 12  2  0  0  0  0
  9 13  1  0  0  0  0
 10 14  1  0  0  0  0
 11 15  1  0  0  0  0
 12 19  1  0  0  0  0
 13 14  1  0  0  0  0
 13 17  2  0  0  0  0
 14 28  1  0  0  0  0
 15 16  1  0  0  0  0
 15 18  2  0  0  0  0
 19 29  1  0  0  0  0
M  CHG  2  15   1  16  -1
M  END
>  <Chemgauss4 Score>
-4.61848163604736

>  <Number of Confs>
6

$$$$
