MIH-UNI-6b9-8
 OpenBabel03242009303D

 35 37  0  0  1  0  0  0  0  0999 V2000
    7.5777   -6.3346   27.9621 C   0  0  0  0  0  0  0  0  0  0  0  0
    8.2718   -5.6137   26.9969 C   0  0  0  0  0  0  0  0  0  0  0  0
   12.5646   -0.1360   23.9457 C   0  0  0  0  0  0  0  0  0  0  0  0
    7.5120   -5.8083   29.2422 C   0  0  0  0  0  0  0  0  0  0  0  0
    8.7469   -3.9655   28.6443 C   0  0  0  0  0  0  0  0  0  0  0  0
   13.5624    0.2924   23.0981 C   0  0  0  0  0  0  0  0  0  0  0  0
   12.2801   -1.5776   22.1448 C   0  0  0  0  0  0  0  0  0  0  0  0
   11.8218   -1.2194   23.3936 C   0  0  0  0  0  0  0  0  0  0  0  0
    8.8706   -4.4056   27.3363 C   0  0  0  0  0  0  0  0  0  0  0  0
   10.9372   -3.3832   24.3762 C   0  0  0  0  0  0  0  0  0  0  0  0
    9.3437   -1.7542   23.3281 C   0  0  0  0  0  0  0  0  0  0  0  0
   10.6622   -1.8966   24.0994 C   0  0  2  0  0  0  0  0  0  0  0  0
    9.7320   -4.0743   25.0181 C   0  0  1  0  0  0  0  0  0  0  0  0
    8.2134   -2.4828   24.0525 C   0  0  2  0  0  0  0  0  0  0  0  0
    8.0808   -4.6382   29.6095 N   0  0  0  0  0  0  0  0  0  0  0  0
    9.5677   -3.6663   26.3968 N   0  0  0  0  0  0  0  0  0  0  0  0
    8.5447   -3.8584   24.2477 O   0  0  0  0  0  0  0  0  0  0  0  0
    7.0396   -2.3684   23.2520 O   0  0  0  0  0  0  0  0  0  0  0  0
   13.6008   -0.6099   21.6432 S   0  0  0  0  0  0  0  0  0  0  0  0
    7.1030   -7.2786   27.7203 H   0  0  0  0  0  0  0  0  0  0  0  0
    8.3400   -6.0018   25.9841 H   0  0  0  0  0  0  0  0  0  0  0  0
   12.3795    0.3098   24.9149 H   0  0  0  0  0  0  0  0  0  0  0  0
    6.9824   -6.3318   30.0313 H   0  0  0  0  0  0  0  0  0  0  0  0
    9.1926   -3.0302   28.9693 H   0  0  0  0  0  0  0  0  0  0  0  0
   14.2701    1.0924   23.2632 H   0  0  0  0  0  0  0  0  0  0  0  0
   11.9048   -2.3596   21.4993 H   0  0  0  0  0  0  0  0  0  0  0  0
   11.1501   -3.8844   23.4212 H   0  0  0  0  0  0  0  0  0  0  0  0
   11.8346   -3.5076   24.9954 H   0  0  0  0  0  0  0  0  0  0  0  0
    9.0826   -0.6976   23.1874 H   0  0  0  0  0  0  0  0  0  0  0  0
    9.4556   -2.1725   22.3178 H   0  0  0  0  0  0  0  0  0  0  0  0
   10.5504   -1.3760   25.0732 H   0  0  0  0  0  0  0  0  0  0  0  0
    9.9102   -5.1550   25.0161 H   0  0  0  0  0  0  0  0  0  0  0  0
    8.0068   -2.0061   25.0181 H   0  0  0  0  0  0  0  0  0  0  0  0
    9.9885   -2.7921   26.6859 H   0  0  0  0  0  0  0  0  0  0  0  0
    6.8567   -1.4201   23.1643 H   0  0  0  0  0  0  0  0  0  0  0  0
  1  2  2  0  0  0  0
  1  4  1  0  0  0  0
  1 20  1  0  0  0  0
  2  9  1  0  0  0  0
  2 21  1  0  0  0  0
  3  6  2  0  0  0  0
  3  8  1  0  0  0  0
  3 22  1  0  0  0  0
  4 15  2  0  0  0  0
  4 23  1  0  0  0  0
  5  9  2  0  0  0  0
  5 15  1  0  0  0  0
  5 24  1  0  0  0  0
  6 19  1  0  0  0  0
  6 25  1  0  0  0  0
  7  8  2  0  0  0  0
  7 19  1  0  0  0  0
  7 26  1  0  0  0  0
  8 12  1  0  0  0  0
  9 16  1  0  0  0  0
 10 12  1  0  0  0  0
 10 13  1  0  0  0  0
 10 27  1  0  0  0  0
 10 28  1  0  0  0  0
 11 12  1  0  0  0  0
 11 14  1  0  0  0  0
 11 29  1  0  0  0  0
 11 30  1  0  0  0  0
 12 31  1  1  0  0  0
 13 16  1  0  0  0  0
 13 17  1  0  0  0  0
 13 32  1  6  0  0  0
 14 17  1  0  0  0  0
 14 18  1  0  0  0  0
 14 33  1  1  0  0  0
 16 34  1  0  0  0  0
 18 35  1  0  0  0  0
M  END
>  <Chemgauss4 Score>
-5.18676424026489

>  <Number of Confs>
76

$$$$
