GIA-UNK-995-12
 OpenBabel03242009303D

 32 33  0  0  0  0  0  0  0  0999 V2000
   13.7033   -1.4128   21.9437 C   0  0  0  0  0  0  0  0  0  0  0  0
   12.3598   -1.8479   22.1331 C   0  0  0  0  0  0  0  0  0  0  0  0
   13.9871   -0.2780   22.6711 C   0  0  0  0  0  0  0  0  0  0  0  0
   11.6680   -1.0291   22.9984 C   0  0  0  0  0  0  0  0  0  0  0  0
   10.2845   -1.1338   23.4471 C   0  0  0  0  0  0  0  0  0  0  0  0
    8.8424   -5.2483   26.1071 C   0  0  0  0  0  0  0  0  0  0  0  0
    8.5222   -2.7763   26.1054 C   0  0  0  0  0  0  0  0  0  0  0  0
   10.8416   -3.7957   25.8592 C   0  0  0  0  0  0  0  0  0  0  0  0
    8.5413   -2.4701   24.6076 C   0  0  0  0  0  0  0  0  0  0  0  0
   10.7777   -3.4689   24.3681 C   0  0  0  0  0  0  0  0  0  0  0  0
    9.4596   -3.9164   26.5011 C   0  0  0  0  0  0  0  0  0  0  0  0
    6.2432   -5.7103   25.3637 C   0  0  0  0  0  0  0  0  0  0  0  0
    9.9140   -2.3063   24.1305 N   0  0  0  0  0  0  0  0  0  0  0  0
    9.4911   -0.2172   23.2258 O   0  0  0  0  0  0  0  0  0  0  0  0
    9.3909   -6.0417   25.3517 O   0  0  0  0  0  0  0  0  0  0  0  0
    5.9199   -4.4762   24.8932 F   0  0  0  0  0  0  0  0  0  0  0  0
   12.6371    0.2583   23.5779 S   0  0  0  0  0  0  0  0  0  0  0  0
    7.2663   -5.5439   26.8405 S   0  0  0  0  0  0  0  0  0  0  0  0
   14.4244   -1.9065   21.3053 H   0  0  0  0  0  0  0  0  0  0  0  0
   11.9279   -2.7189   21.6563 H   0  0  0  0  0  0  0  0  0  0  0  0
   14.9225    0.2622   22.7125 H   0  0  0  0  0  0  0  0  0  0  0  0
    8.8233   -1.8705   26.6476 H   0  0  0  0  0  0  0  0  0  0  0  0
    7.4934   -2.9991   26.4134 H   0  0  0  0  0  0  0  0  0  0  0  0
   11.4115   -4.7220   26.0006 H   0  0  0  0  0  0  0  0  0  0  0  0
   11.4001   -2.9995   26.3682 H   0  0  0  0  0  0  0  0  0  0  0  0
    8.0907   -3.2917   24.0386 H   0  0  0  0  0  0  0  0  0  0  0  0
    7.9478   -1.5725   24.4070 H   0  0  0  0  0  0  0  0  0  0  0  0
   11.7902   -3.3051   23.9905 H   0  0  0  0  0  0  0  0  0  0  0  0
   10.3587   -4.3082   23.8013 H   0  0  0  0  0  0  0  0  0  0  0  0
    9.5629   -3.9505   27.5793 H   0  0  0  0  0  0  0  0  0  0  0  0
    5.3133   -6.2373   25.5926 H   0  0  0  0  0  0  0  0  0  0  0  0
    6.7833   -6.2401   24.5746 H   0  0  0  0  0  0  0  0  0  0  0  0
  1  2  1  0  0  0  0
  1  3  2  0  0  0  0
  1 19  1  0  0  0  0
  2  4  2  0  0  0  0
  2 20  1  0  0  0  0
  3 17  1  0  0  0  0
  3 21  1  0  0  0  0
  4  5  1  0  0  0  0
  4 17  1  0  0  0  0
  5 13  1  0  0  0  0
  5 14  2  0  0  0  0
  6 11  1  0  0  0  0
  6 15  2  0  0  0  0
  6 18  1  0  0  0  0
  7  9  1  0  0  0  0
  7 11  1  0  0  0  0
  7 22  1  0  0  0  0
  7 23  1  0  0  0  0
  8 10  1  0  0  0  0
  8 11  1  0  0  0  0
  8 24  1  0  0  0  0
  8 25  1  0  0  0  0
  9 13  1  0  0  0  0
  9 26  1  0  0  0  0
  9 27  1  0  0  0  0
 10 13  1  0  0  0  0
 10 28  1  0  0  0  0
 10 29  1  0  0  0  0
 11 30  1  0  0  0  0
 12 16  1  0  0  0  0
 12 18  1  0  0  0  0
 12 31  1  0  0  0  0
 12 32  1  0  0  0  0
M  END
>  <Chemgauss4 Score>
-5.00937700271606

>  <Number of Confs>
200

$$$$
