ADA-UNI-f8e-9
 OpenBabel03242009303D

 43 45  0  0  1  0  0  0  0  0999 V2000
   11.8721    0.0067   24.3823 C   0  0  0  0  0  0  0  0  0  0  0  0
    7.5457   -4.4242   28.8618 C   0  0  0  0  0  0  0  0  0  0  0  0
   10.5865   -0.5342   24.3934 C   0  0  0  0  0  0  0  0  0  0  0  0
    7.7701   -3.4911   27.8557 C   0  0  0  0  0  0  0  0  0  0  0  0
   12.7813   -0.3760   23.3961 C   0  0  0  0  0  0  0  0  0  0  0  0
   11.1192   -1.8405   22.4320 C   0  0  0  0  0  0  0  0  0  0  0  0
    7.6680   -5.7665   28.5405 C   0  0  0  0  0  0  0  0  0  0  0  0
    8.2026   -5.2874   26.3581 C   0  0  0  0  0  0  0  0  0  0  0  0
   10.2100   -1.4578   23.4183 C   0  0  0  0  0  0  0  0  0  0  0  0
    8.1052   -3.9227   26.5771 C   0  0  0  0  0  0  0  0  0  0  0  0
   12.4049   -1.2996   22.4210 C   0  0  0  0  0  0  0  0  0  0  0  0
    8.6783   -3.2772   24.2151 C   0  0  0  0  0  0  0  0  0  0  0  0
    7.6617   -1.0639   23.4257 C   0  0  0  0  0  0  0  0  0  0  0  0
    7.9395   -1.8804   22.2017 C   0  0  2  0  0  0  0  0  0  0  0  0
    8.8374   -2.0348   23.4305 C   0  0  1  0  0  0  0  0  0  0  0  0
    6.0432    1.3944   18.9965 C   0  0  0  0  0  0  0  0  0  0  0  0
    8.3999   -1.2138   20.9494 C   0  0  0  0  0  0  0  0  0  0  0  0
    7.9918   -6.2237   27.3102 N   0  0  0  0  0  0  0  0  0  0  0  0
    8.3391   -2.9970   25.5327 N   0  0  0  0  0  0  0  0  0  0  0  0
    7.2962   -0.6337   20.2358 N   0  0  0  0  0  0  0  0  0  0  0  0
    8.8395   -4.3752   23.6923 O   0  0  0  0  0  0  0  0  0  0  0  0
    8.0023    1.8199   20.6791 O   0  0  0  0  0  0  0  0  0  0  0  0
    5.7840    1.0120   21.5639 O   0  0  0  0  0  0  0  0  0  0  0  0
    6.8175    0.9949   20.5466 S   0  0  0  0  0  0  0  0  0  0  0  0
   13.5271   -1.7713   21.2044 Cl  0  0  0  0  0  0  0  0  0  0  0  0
   12.1652    0.7258   25.1416 H   0  0  0  0  0  0  0  0  0  0  0  0
    7.2834   -4.1106   29.8658 H   0  0  0  0  0  0  0  0  0  0  0  0
    9.8855   -0.2295   25.1660 H   0  0  0  0  0  0  0  0  0  0  0  0
    7.6813   -2.4312   28.0787 H   0  0  0  0  0  0  0  0  0  0  0  0
   13.7797    0.0539   23.4000 H   0  0  0  0  0  0  0  0  0  0  0  0
   10.8213   -2.5610   21.6735 H   0  0  0  0  0  0  0  0  0  0  0  0
    7.5023   -6.5337   29.2896 H   0  0  0  0  0  0  0  0  0  0  0  0
    8.4609   -5.6853   25.3813 H   0  0  0  0  0  0  0  0  0  0  0  0
    7.8676    0.0003   23.3958 H   0  0  0  0  0  0  0  0  0  0  0  0
    6.7817   -1.3160   24.0073 H   0  0  0  0  0  0  0  0  0  0  0  0
    7.2536   -2.6912   21.9782 H   0  0  0  0  0  0  0  0  0  0  0  0
    5.6820    2.4228   19.0469 H   0  0  0  0  0  0  0  0  0  0  0  0
    6.7850    1.2881   18.2035 H   0  0  0  0  0  0  0  0  0  0  0  0
    5.2127    0.7047   18.8386 H   0  0  0  0  0  0  0  0  0  0  0  0
    9.1171   -0.4212   21.2082 H   0  0  0  0  0  0  0  0  0  0  0  0
    8.8918   -1.9586   20.3070 H   0  0  0  0  0  0  0  0  0  0  0  0
    8.2440   -2.0167   25.7896 H   0  0  0  0  0  0  0  0  0  0  0  0
    6.5080   -1.2812   20.0133 H   0  0  0  0  0  0  0  0  0  0  0  0
  1  3  2  0  0  0  0
  1  5  1  0  0  0  0
  1 26  1  0  0  0  0
  2  4  2  0  0  0  0
  2  7  1  0  0  0  0
  2 27  1  0  0  0  0
  3  9  1  0  0  0  0
  3 28  1  0  0  0  0
  4 10  1  0  0  0  0
  4 29  1  0  0  0  0
  5 11  2  0  0  0  0
  5 30  1  0  0  0  0
  6  9  2  0  0  0  0
  6 11  1  0  0  0  0
  6 31  1  0  0  0  0
  7 18  2  0  0  0  0
  7 32  1  0  0  0  0
  8 10  2  0  0  0  0
  8 18  1  0  0  0  0
  8 33  1  0  0  0  0
  9 15  1  0  0  0  0
 10 19  1  0  0  0  0
 11 25  1  0  0  0  0
 12 19  1  0  0  0  0
 12 21  2  0  0  0  0
 13 14  1  0  0  0  0
 13 15  1  0  0  0  0
 13 34  1  0  0  0  0
 13 35  1  0  0  0  0
 14 15  1  0  0  0  0
 14 17  1  0  0  0  0
 14 36  1  6  0  0  0
 15 12  1  1  0  0  0
 16 24  1  0  0  0  0
 16 37  1  0  0  0  0
 16 38  1  0  0  0  0
 16 39  1  0  0  0  0
 17 20  1  0  0  0  0
 17 40  1  0  0  0  0
 17 41  1  0  0  0  0
 19 42  1  0  0  0  0
 20 24  1  0  0  0  0
 20 43  1  0  0  0  0
 22 24  2  0  0  0  0
 23 24  2  0  0  0  0
M  END
>  <Chemgauss4 Score>
-5.6818151473999

>  <Number of Confs>
200

$$$$
