PAU-WEI-b9b-1
 OpenBabel03242009303D

 50 52  0  0  1  0  0  0  0  0999 V2000
    5.0973   -4.6014   25.2575 C   0  0  0  0  0  0  0  0  0  0  0  0
    5.6652   -3.5106   25.9155 C   0  0  0  0  0  0  0  0  0  0  0  0
    5.9132   -5.6158   24.7564 C   0  0  0  0  0  0  0  0  0  0  0  0
   12.1149    0.7780   23.6536 C   0  0  0  0  0  0  0  0  0  0  0  0
    7.0491   -3.4339   26.0723 C   0  0  0  0  0  0  0  0  0  0  0  0
    7.2971   -5.5392   24.9132 C   0  0  0  0  0  0  0  0  0  0  0  0
   11.0880    0.0217   24.2184 C   0  0  0  0  0  0  0  0  0  0  0  0
   12.9923    0.1917   22.7415 C   0  0  0  0  0  0  0  0  0  0  0  0
   11.8161   -1.9073   22.9591 C   0  0  0  0  0  0  0  0  0  0  0  0
    7.8651   -4.4483   25.5712 C   0  0  0  0  0  0  0  0  0  0  0  0
   10.9386   -1.3210   23.8712 C   0  0  0  0  0  0  0  0  0  0  0  0
   12.8430   -1.1509   22.3942 C   0  0  0  0  0  0  0  0  0  0  0  0
    6.3173    0.2661   20.9359 C   0  0  0  0  0  0  0  0  0  0  0  0
    6.6349   -0.4814   23.3435 C   0  0  0  0  0  0  0  0  0  0  0  0
    7.5749   -1.7912   21.4820 C   0  0  0  0  0  0  0  0  0  0  0  0
    7.9432   -0.6822   24.1104 C   0  0  0  0  0  0  0  0  0  0  0  0
    8.8663   -1.9616   22.2813 C   0  0  0  0  0  0  0  0  0  0  0  0
    9.3609   -4.3660   25.7401 C   0  0  0  0  0  0  0  0  0  0  0  0
    6.6608   -0.0361   19.4990 C   0  0  0  0  0  0  0  0  0  0  0  0
   10.1159   -3.6529   24.6061 C   0  0  0  0  0  0  0  0  0  0  0  0
    9.8248   -2.1415   24.4855 C   0  0  2  0  0  0  0  0  0  0  0  0
    6.8479   -0.5927   21.8974 N   0  0  0  0  0  0  0  0  0  0  0  0
    8.5912   -1.9446   23.7254 N   0  0  0  0  0  0  0  0  0  0  0  0
    5.5965    1.2334   21.1940 O   0  0  0  0  0  0  0  0  0  0  0  0
   13.9266   -1.8741   21.2697 Cl  0  0  0  0  0  0  0  0  0  0  0  0
    5.8366    1.1718   18.5194 Cl  0  0  0  0  0  0  0  0  0  0  0  0
    4.0196   -4.6616   25.1366 H   0  0  0  0  0  0  0  0  0  0  0  0
    5.0300   -2.7212   26.3067 H   0  0  0  0  0  0  0  0  0  0  0  0
    5.4712   -6.4658   24.2450 H   0  0  0  0  0  0  0  0  0  0  0  0
   12.2309    1.8235   23.9244 H   0  0  0  0  0  0  0  0  0  0  0  0
    7.4829   -2.5801   26.5862 H   0  0  0  0  0  0  0  0  0  0  0  0
    7.9249   -6.3341   24.5194 H   0  0  0  0  0  0  0  0  0  0  0  0
   10.4090    0.4867   24.9284 H   0  0  0  0  0  0  0  0  0  0  0  0
   13.7883    0.7933   22.3094 H   0  0  0  0  0  0  0  0  0  0  0  0
   11.6951   -2.9544   22.6913 H   0  0  0  0  0  0  0  0  0  0  0  0
    5.9064   -1.2538   23.6196 H   0  0  0  0  0  0  0  0  0  0  0  0
    6.2027    0.4831   23.6170 H   0  0  0  0  0  0  0  0  0  0  0  0
    7.8046   -1.7538   20.4121 H   0  0  0  0  0  0  0  0  0  0  0  0
    6.9069   -2.6465   21.6424 H   0  0  0  0  0  0  0  0  0  0  0  0
    8.6091    0.1725   23.9315 H   0  0  0  0  0  0  0  0  0  0  0  0
    7.7126   -0.6976   25.1825 H   0  0  0  0  0  0  0  0  0  0  0  0
    9.3175   -2.9215   22.0022 H   0  0  0  0  0  0  0  0  0  0  0  0
    9.5787   -1.1726   22.0056 H   0  0  0  0  0  0  0  0  0  0  0  0
    9.7367   -5.3949   25.8177 H   0  0  0  0  0  0  0  0  0  0  0  0
    9.6103   -3.8883   26.6960 H   0  0  0  0  0  0  0  0  0  0  0  0
    6.2973   -1.0269   19.2518 H   0  0  0  0  0  0  0  0  0  0  0  0
    7.7336    0.0479   19.3691 H   0  0  0  0  0  0  0  0  0  0  0  0
    9.9553   -4.1626   23.6486 H   0  0  0  0  0  0  0  0  0  0  0  0
   11.1877   -3.7691   24.8219 H   0  0  0  0  0  0  0  0  0  0  0  0
    9.6012   -1.7584   25.4892 H   0  0  0  0  0  0  0  0  0  0  0  0
  1  2  1  0  0  0  0
  1  3  2  0  0  0  0
  1 27  1  0  0  0  0
  2  5  2  0  0  0  0
  2 28  1  0  0  0  0
  3  6  1  0  0  0  0
  3 29  1  0  0  0  0
  4  7  2  0  0  0  0
  4  8  1  0  0  0  0
  4 30  1  0  0  0  0
  5 10  1  0  0  0  0
  5 31  1  0  0  0  0
  6 10  2  0  0  0  0
  6 32  1  0  0  0  0
  7 11  1  0  0  0  0
  7 33  1  0  0  0  0
  8 12  2  0  0  0  0
  8 34  1  0  0  0  0
  9 11  2  0  0  0  0
  9 12  1  0  0  0  0
  9 35  1  0  0  0  0
 10 18  1  0  0  0  0
 11 21  1  0  0  0  0
 12 25  1  0  0  0  0
 13 19  1  0  0  0  0
 13 22  1  0  0  0  0
 13 24  2  0  0  0  0
 14 16  1  0  0  0  0
 14 22  1  0  0  0  0
 14 36  1  0  0  0  0
 14 37  1  0  0  0  0
 15 17  1  0  0  0  0
 15 22  1  0  0  0  0
 15 38  1  0  0  0  0
 15 39  1  0  0  0  0
 16 23  1  0  0  0  0
 16 40  1  0  0  0  0
 16 41  1  0  0  0  0
 17 23  1  0  0  0  0
 17 42  1  0  0  0  0
 17 43  1  0  0  0  0
 18 20  1  0  0  0  0
 18 44  1  0  0  0  0
 18 45  1  0  0  0  0
 19 26  1  0  0  0  0
 19 46  1  0  0  0  0
 19 47  1  0  0  0  0
 20 21  1  0  0  0  0
 20 48  1  0  0  0  0
 20 49  1  0  0  0  0
 21 23  1  0  0  0  0
 21 50  1  1  0  0  0
M  END
>  <Chemgauss4 Score>
-5.13916444778442

>  <Number of Confs>
200

$$$$
