BAR-COM-21d-7
 OpenBabel03242009303D

 44 46  0  0  0  0  0  0  0  0999 V2000
    8.6627   -4.6351   27.6820 C   0  0  0  0  0  0  0  0  0  0  0  0
   13.0469   -1.8341   23.7733 C   0  0  0  0  0  0  0  0  0  0  0  0
    5.8839    1.0905   17.9471 C   0  0  0  0  0  0  0  0  0  0  0  0
   12.3867   -2.7364   24.6072 C   0  0  0  0  0  0  0  0  0  0  0  0
   12.3556   -1.2097   22.7351 C   0  0  0  0  0  0  0  0  0  0  0  0
    7.1136    0.6017   18.3740 C   0  0  0  0  0  0  0  0  0  0  0  0
   10.3439   -2.3902   23.3646 C   0  0  0  0  0  0  0  0  0  0  0  0
    4.9998    1.5513   18.9093 C   0  0  0  0  0  0  0  0  0  0  0  0
    6.4646    1.0723   20.6131 C   0  0  0  0  0  0  0  0  0  0  0  0
   11.0352   -3.0146   24.4029 C   0  0  0  0  0  0  0  0  0  0  0  0
   11.0041   -1.4878   22.5307 C   0  0  0  0  0  0  0  0  0  0  0  0
    7.4173    0.5888   19.7308 C   0  0  0  0  0  0  0  0  0  0  0  0
    8.9400   -0.5207   21.4247 C   0  0  0  0  0  0  0  0  0  0  0  0
    6.5132   -6.0897   26.2241 C   0  0  0  0  0  0  0  0  0  0  0  0
    6.5603   -4.5499   26.2708 C   0  0  0  0  0  0  0  0  0  0  0  0
    7.9659   -6.0649   25.7101 C   0  0  0  0  0  0  0  0  0  0  0  0
    8.1152   -4.6437   26.3330 C   0  0  0  0  0  0  0  0  0  0  0  0
   10.3220   -3.9902   25.3047 C   0  0  0  0  0  0  0  0  0  0  0  0
    8.8395   -3.6420   25.4424 C   0  0  0  0  0  0  0  0  0  0  0  0
    9.0989   -4.6283   28.7571 N   0  0  0  0  0  0  0  0  0  0  0  0
    5.2594    1.5549   20.2360 N   0  0  0  0  0  0  0  0  0  0  0  0
   10.3127   -0.8626   21.4925 N   0  0  0  0  0  0  0  0  0  0  0  0
    8.6601    0.0974   20.1954 N   0  0  0  0  0  0  0  0  0  0  0  0
    8.1218   -0.7361   22.3131 O   0  0  0  0  0  0  0  0  0  0  0  0
   14.0991   -1.6171   23.9327 H   0  0  0  0  0  0  0  0  0  0  0  0
    5.6257    1.1101   16.8945 H   0  0  0  0  0  0  0  0  0  0  0  0
   12.9338   -3.2183   25.4128 H   0  0  0  0  0  0  0  0  0  0  0  0
   12.8803   -0.5082   22.0913 H   0  0  0  0  0  0  0  0  0  0  0  0
    7.8271    0.2335   17.6415 H   0  0  0  0  0  0  0  0  0  0  0  0
    9.2901   -2.6093   23.2067 H   0  0  0  0  0  0  0  0  0  0  0  0
    4.0273    1.9418   18.6279 H   0  0  0  0  0  0  0  0  0  0  0  0
    6.6437    1.0884   21.6841 H   0  0  0  0  0  0  0  0  0  0  0  0
    6.4009   -6.5581   27.2085 H   0  0  0  0  0  0  0  0  0  0  0  0
    5.7766   -6.5201   25.5408 H   0  0  0  0  0  0  0  0  0  0  0  0
    6.1705   -4.0793   25.3596 H   0  0  0  0  0  0  0  0  0  0  0  0
    6.0590   -4.0947   27.1306 H   0  0  0  0  0  0  0  0  0  0  0  0
    8.6150   -6.8496   26.1109 H   0  0  0  0  0  0  0  0  0  0  0  0
    8.0358   -6.0898   24.6155 H   0  0  0  0  0  0  0  0  0  0  0  0
   10.4307   -5.0083   24.9088 H   0  0  0  0  0  0  0  0  0  0  0  0
   10.7970   -3.9960   26.2943 H   0  0  0  0  0  0  0  0  0  0  0  0
    8.7231   -2.6387   25.8674 H   0  0  0  0  0  0  0  0  0  0  0  0
    8.3592   -3.6290   24.4576 H   0  0  0  0  0  0  0  0  0  0  0  0
   10.8730   -0.6181   20.6692 H   0  0  0  0  0  0  0  0  0  0  0  0
    9.4425    0.2081   19.5553 H   0  0  0  0  0  0  0  0  0  0  0  0
  1 17  1  0  0  0  0
  1 20  3  0  0  0  0
  2  4  2  0  0  0  0
  2  5  1  0  0  0  0
  2 25  1  0  0  0  0
  3  6  2  0  0  0  0
  3  8  1  0  0  0  0
  3 26  1  0  0  0  0
  4 10  1  0  0  0  0
  4 27  1  0  0  0  0
  5 11  2  0  0  0  0
  5 28  1  0  0  0  0
  6 12  1  0  0  0  0
  6 29  1  0  0  0  0
  7 10  2  0  0  0  0
  7 11  1  0  0  0  0
  7 30  1  0  0  0  0
  8 21  2  0  0  0  0
  8 31  1  0  0  0  0
  9 12  2  0  0  0  0
  9 21  1  0  0  0  0
  9 32  1  0  0  0  0
 10 18  1  0  0  0  0
 11 22  1  0  0  0  0
 12 23  1  0  0  0  0
 13 22  1  0  0  0  0
 13 23  1  0  0  0  0
 13 24  2  0  0  0  0
 14 15  1  0  0  0  0
 14 16  1  0  0  0  0
 14 33  1  0  0  0  0
 14 34  1  0  0  0  0
 15 17  1  0  0  0  0
 15 35  1  0  0  0  0
 15 36  1  0  0  0  0
 16 17  1  0  0  0  0
 16 37  1  0  0  0  0
 16 38  1  0  0  0  0
 17 19  1  0  0  0  0
 18 19  1  0  0  0  0
 18 39  1  0  0  0  0
 18 40  1  0  0  0  0
 19 41  1  0  0  0  0
 19 42  1  0  0  0  0
 22 43  1  0  0  0  0
 23 44  1  0  0  0  0
M  END
>  <Chemgauss4 Score>
-6.75093030929565

>  <Number of Confs>
136

$$$$
