SAL-INS-1c7-10
 OpenBabel03242009303D

 40 42  0  0  1  0  0  0  0  0999 V2000
    8.1515   -2.7950   23.2814 C   0  0  0  0  0  0  0  0  0  0  0  0
    7.6931   -3.8818   22.5368 C   0  0  0  0  0  0  0  0  0  0  0  0
    8.6707   -5.3963   24.1455 C   0  0  0  0  0  0  0  0  0  0  0  0
    8.8104   -3.7192   28.3513 C   0  0  0  0  0  0  0  0  0  0  0  0
    7.6939   -5.5710   28.7764 C   0  0  0  0  0  0  0  0  0  0  0  0
    9.1292   -4.3095   24.8900 C   0  0  0  0  0  0  0  0  0  0  0  0
    8.8697   -3.0089   24.4580 C   0  0  0  0  0  0  0  0  0  0  0  0
    7.9526   -5.1824   22.9689 C   0  0  0  0  0  0  0  0  0  0  0  0
    9.0272   -4.6707   27.3828 C   0  0  0  0  0  0  0  0  0  0  0  0
   11.4328   -2.0926   23.9746 C   0  0  0  0  0  0  0  0  0  0  0  0
   11.6793   -1.4639   22.8209 C   0  0  0  0  0  0  0  0  0  0  0  0
    8.4492   -1.3608   26.2187 C   0  0  0  0  0  0  0  0  0  0  0  0
   10.6487    0.1292   24.5908 C   0  0  0  0  0  0  0  0  0  0  0  0
   10.6853   -1.3367   25.0375 C   0  0  1  0  0  0  0  0  0  0  0  0
    9.8955   -4.5687   26.1464 C   0  0  0  0  0  0  0  0  0  0  0  0
    7.0765   -2.0099   26.2178 C   0  0  0  0  0  0  0  0  0  0  0  0
    8.3291   -5.8210   27.6530 N   0  0  0  0  0  0  0  0  0  0  0  0
    7.9540   -4.3103   29.2370 N   0  0  0  0  0  0  0  0  0  0  0  0
    9.3362   -1.8677   25.2163 N   0  0  0  0  0  0  0  0  0  0  0  0
    8.7054   -0.4553   27.0163 O   0  0  0  0  0  0  0  0  0  0  0  0
   12.0496    1.1053   22.5772 O   0  0  0  0  0  0  0  0  0  0  0  0
    9.7576    0.1369   22.1081 O   0  0  0  0  0  0  0  0  0  0  0  0
    7.5118   -6.2259   22.2541 F   0  0  0  0  0  0  0  0  0  0  0  0
   11.0111    0.1288   22.8354 S   0  0  0  0  0  0  0  0  0  0  0  0
    5.9860   -1.1290   25.1268 Cl  0  0  0  0  0  0  0  0  0  0  0  0
    7.9433   -1.7859   22.9344 H   0  0  0  0  0  0  0  0  0  0  0  0
    7.1341   -3.7156   21.6207 H   0  0  0  0  0  0  0  0  0  0  0  0
    8.8660   -6.4138   24.4737 H   0  0  0  0  0  0  0  0  0  0  0  0
    9.1722   -2.7104   28.4893 H   0  0  0  0  0  0  0  0  0  0  0  0
    7.0385   -6.2509   29.3023 H   0  0  0  0  0  0  0  0  0  0  0  0
   11.7635   -3.1102   24.1472 H   0  0  0  0  0  0  0  0  0  0  0  0
   12.2058   -1.8816   21.9752 H   0  0  0  0  0  0  0  0  0  0  0  0
    9.6929    0.6283   24.7706 H   0  0  0  0  0  0  0  0  0  0  0  0
   11.4457    0.6951   25.0854 H   0  0  0  0  0  0  0  0  0  0  0  0
   11.1854   -1.4131   26.0202 H   0  0  0  0  0  0  0  0  0  0  0  0
   10.4914   -5.4921   26.0489 H   0  0  0  0  0  0  0  0  0  0  0  0
   10.6529   -3.7820   26.3037 H   0  0  0  0  0  0  0  0  0  0  0  0
    7.1531   -3.0410   25.8639 H   0  0  0  0  0  0  0  0  0  0  0  0
    6.6224   -1.9739   27.2109 H   0  0  0  0  0  0  0  0  0  0  0  0
    7.5815   -3.8924   30.0791 H   0  0  0  0  0  0  0  0  0  0  0  0
  1  2  2  0  0  0  0
  1  7  1  0  0  0  0
  1 26  1  0  0  0  0
  2  8  1  0  0  0  0
  2 27  1  0  0  0  0
  3  6  1  0  0  0  0
  3  8  2  0  0  0  0
  3 28  1  0  0  0  0
  4  9  2  0  0  0  0
  4 18  1  0  0  0  0
  4 29  1  0  0  0  0
  5 17  2  0  0  0  0
  5 18  1  0  0  0  0
  5 30  1  0  0  0  0
  6  7  2  0  0  0  0
  6 15  1  0  0  0  0
  7 19  1  0  0  0  0
  8 23  1  0  0  0  0
  9 15  1  0  0  0  0
  9 17  1  0  0  0  0
 10 11  2  0  0  0  0
 10 14  1  0  0  0  0
 10 31  1  0  0  0  0
 11 24  1  0  0  0  0
 11 32  1  0  0  0  0
 12 16  1  0  0  0  0
 12 19  1  0  0  0  0
 12 20  2  0  0  0  0
 13 14  1  0  0  0  0
 13 24  1  0  0  0  0
 13 33  1  0  0  0  0
 13 34  1  0  0  0  0
 14 19  1  0  0  0  0
 14 35  1  1  0  0  0
 15 36  1  0  0  0  0
 15 37  1  0  0  0  0
 16 25  1  0  0  0  0
 16 38  1  0  0  0  0
 16 39  1  0  0  0  0
 18 40  1  0  0  0  0
 21 24  2  0  0  0  0
 22 24  2  0  0  0  0
M  END
>  <Chemgauss4 Score>
-7.37181186676025

>  <Number of Confs>
200

$$$$
