ADA-UNI-f8e-4
 OpenBabel03242009303D

 40 41  0  0  1  0  0  0  0  0999 V2000
   13.2567   -0.5044   23.3496 C   0  0  0  0  0  0  0  0  0  0  0  0
   12.1729    0.0220   24.0524 C   0  0  0  0  0  0  0  0  0  0  0  0
   13.0538   -1.5142   22.4089 C   0  0  0  0  0  0  0  0  0  0  0  0
    8.7953   -3.9876   28.3831 C   0  0  0  0  0  0  0  0  0  0  0  0
   10.8863   -0.4614   23.8146 C   0  0  0  0  0  0  0  0  0  0  0  0
   11.7672   -1.9977   22.1711 C   0  0  0  0  0  0  0  0  0  0  0  0
    9.0347   -3.1584   27.2929 C   0  0  0  0  0  0  0  0  0  0  0  0
    8.3823   -5.2861   28.1319 C   0  0  0  0  0  0  0  0  0  0  0  0
    8.4407   -4.9600   25.8585 C   0  0  0  0  0  0  0  0  0  0  0  0
   10.6834   -1.4713   22.8739 C   0  0  0  0  0  0  0  0  0  0  0  0
    8.8562   -3.6461   26.0031 C   0  0  0  0  0  0  0  0  0  0  0  0
    8.9533   -3.1695   23.5327 C   0  0  0  0  0  0  0  0  0  0  0  0
    6.4274    2.2686   21.0577 C   0  0  0  0  0  0  0  0  0  0  0  0
    6.3476    0.0625   21.9997 C   0  0  0  0  0  0  0  0  0  0  0  0
    7.1288   -1.2261   22.1807 C   0  0  0  0  0  0  0  0  0  0  0  0
    9.3079   -1.9888   22.6193 C   0  0  1  0  0  0  0  0  0  0  0  0
    8.1981   -5.7955   26.8932 N   0  0  0  0  0  0  0  0  0  0  0  0
    9.0916   -2.8263   24.8742 N   0  0  0  0  0  0  0  0  0  0  0  0
    7.1492    1.0220   21.2063 N   0  0  0  0  0  0  0  0  0  0  0  0
    8.6014   -4.2520   23.0729 O   0  0  0  0  0  0  0  0  0  0  0  0
    8.3594   -0.9442   22.8291 O   0  0  0  0  0  0  0  0  0  0  0  0
   14.2582   -0.1270   23.5339 H   0  0  0  0  0  0  0  0  0  0  0  0
   12.3305    0.8090   24.7841 H   0  0  0  0  0  0  0  0  0  0  0  0
   13.8972   -1.9236   21.8607 H   0  0  0  0  0  0  0  0  0  0  0  0
    8.9279   -3.6287   29.3973 H   0  0  0  0  0  0  0  0  0  0  0  0
   10.0478   -0.0454   24.3670 H   0  0  0  0  0  0  0  0  0  0  0  0
   11.6187   -2.7847   21.4364 H   0  0  0  0  0  0  0  0  0  0  0  0
    9.3596   -2.1348   27.4597 H   0  0  0  0  0  0  0  0  0  0  0  0
    8.1816   -5.9723   28.9480 H   0  0  0  0  0  0  0  0  0  0  0  0
    8.2842   -5.3977   24.8770 H   0  0  0  0  0  0  0  0  0  0  0  0
    6.2447    2.7076   22.0496 H   0  0  0  0  0  0  0  0  0  0  0  0
    7.0231    2.9671   20.4517 H   0  0  0  0  0  0  0  0  0  0  0  0
    5.4658    2.0781   20.5585 H   0  0  0  0  0  0  0  0  0  0  0  0
    5.4051   -0.1155   21.4722 H   0  0  0  0  0  0  0  0  0  0  0  0
    6.1338    0.5180   22.9713 H   0  0  0  0  0  0  0  0  0  0  0  0
    7.3543   -1.6678   21.2051 H   0  0  0  0  0  0  0  0  0  0  0  0
    6.5726   -1.9530   22.7816 H   0  0  0  0  0  0  0  0  0  0  0  0
    9.1840   -2.3122   21.5713 H   0  0  0  0  0  0  0  0  0  0  0  0
    9.3938   -1.8772   25.0831 H   0  0  0  0  0  0  0  0  0  0  0  0
    7.3240    0.6070   20.3000 H   0  0  0  0  0  0  0  0  0  0  0  0
  1  2  1  0  0  0  0
  1  3  2  0  0  0  0
  1 22  1  0  0  0  0
  2  5  2  0  0  0  0
  2 23  1  0  0  0  0
  3  6  1  0  0  0  0
  3 24  1  0  0  0  0
  4  7  2  0  0  0  0
  4  8  1  0  0  0  0
  4 25  1  0  0  0  0
  5 10  1  0  0  0  0
  5 26  1  0  0  0  0
  6 10  2  0  0  0  0
  6 27  1  0  0  0  0
  7 11  1  0  0  0  0
  7 28  1  0  0  0  0
  8 17  2  0  0  0  0
  8 29  1  0  0  0  0
  9 11  2  0  0  0  0
  9 17  1  0  0  0  0
  9 30  1  0  0  0  0
 10 16  1  0  0  0  0
 11 18  1  0  0  0  0
 12 16  1  0  0  0  0
 12 18  1  0  0  0  0
 12 20  2  0  0  0  0
 13 19  1  0  0  0  0
 13 31  1  0  0  0  0
 13 32  1  0  0  0  0
 13 33  1  0  0  0  0
 14 15  1  0  0  0  0
 14 19  1  0  0  0  0
 14 34  1  0  0  0  0
 14 35  1  0  0  0  0
 15 21  1  0  0  0  0
 15 36  1  0  0  0  0
 15 37  1  0  0  0  0
 16 21  1  0  0  0  0
 16 38  1  6  0  0  0
 18 39  1  0  0  0  0
 19 40  1  0  0  0  0
M  END
>  <Chemgauss4 Score>
-5.86558771133423

>  <Number of Confs>
200

$$$$
