DAR-DIA-033-10
 OpenBabel03242009303D

 51 53  0  0  0  0  0  0  0  0999 V2000
   13.9481   -0.5523   22.7385 C   0  0  0  0  0  0  0  0  0  0  0  0
   13.4848   -1.4252   21.7542 C   0  0  0  0  0  0  0  0  0  0  0  0
   13.0472    0.0503   23.6166 C   0  0  0  0  0  0  0  0  0  0  0  0
   12.1205   -1.6955   21.6478 C   0  0  0  0  0  0  0  0  0  0  0  0
   11.6829   -0.2200   23.5102 C   0  0  0  0  0  0  0  0  0  0  0  0
    9.2845   -3.5804   28.0916 C   0  0  0  0  0  0  0  0  0  0  0  0
    8.2361   -2.7925   28.5386 C   0  0  0  0  0  0  0  0  0  0  0  0
    8.0759   -1.7045   26.5215 C   0  0  0  0  0  0  0  0  0  0  0  0
   11.2195   -1.0929   22.5258 C   0  0  0  0  0  0  0  0  0  0  0  0
    9.7274   -3.3952   26.7866 C   0  0  0  0  0  0  0  0  0  0  0  0
    9.1170   -2.4413   25.9800 C   0  0  0  0  0  0  0  0  0  0  0  0
    9.0078   -1.2985   23.7379 C   0  0  0  0  0  0  0  0  0  0  0  0
    8.0836   -5.6798   25.1680 C   0  0  0  0  0  0  0  0  0  0  0  0
    5.7836   -5.7181   24.2546 C   0  0  0  0  0  0  0  0  0  0  0  0
    7.6463   -5.9745   22.6596 C   0  0  0  0  0  0  0  0  0  0  0  0
    5.1024   -4.8173   23.2365 C   0  0  0  0  0  0  0  0  0  0  0  0
    6.8653   -5.0792   21.7034 C   0  0  0  0  0  0  0  0  0  0  0  0
    9.7461   -1.3841   22.4113 C   0  0  0  0  0  0  0  0  0  0  0  0
   10.8682   -4.2393   26.2736 C   0  0  0  0  0  0  0  0  0  0  0  0
   10.4459   -5.6655   25.9293 C   0  0  0  0  0  0  0  0  0  0  0  0
    7.6182   -1.8560   27.7845 N   0  0  0  0  0  0  0  0  0  0  0  0
    7.2339   -5.7388   24.0506 N   0  0  0  0  0  0  0  0  0  0  0  0
    9.5251   -2.2191   24.6651 N   0  0  0  0  0  0  0  0  0  0  0  0
    9.4446   -5.7114   24.8874 N   0  0  0  0  0  0  0  0  0  0  0  0
    8.0849   -0.5121   23.9250 O   0  0  0  0  0  0  0  0  0  0  0  0
    7.6608   -5.6107   26.3268 O   0  0  0  0  0  0  0  0  0  0  0  0
    5.4597   -5.2191   21.9128 O   0  0  0  0  0  0  0  0  0  0  0  0
   15.0106   -0.3430   22.8221 H   0  0  0  0  0  0  0  0  0  0  0  0
   14.1862   -1.8954   21.0711 H   0  0  0  0  0  0  0  0  0  0  0  0
   13.4077    0.7291   24.3837 H   0  0  0  0  0  0  0  0  0  0  0  0
   11.7685   -2.3768   20.8776 H   0  0  0  0  0  0  0  0  0  0  0  0
   10.9883    0.2542   24.1985 H   0  0  0  0  0  0  0  0  0  0  0  0
    9.7394   -4.3158   28.7465 H   0  0  0  0  0  0  0  0  0  0  0  0
    7.8536   -2.8979   29.5485 H   0  0  0  0  0  0  0  0  0  0  0  0
    7.5593   -0.9455   25.9415 H   0  0  0  0  0  0  0  0  0  0  0  0
    5.5293   -5.4038   25.2712 H   0  0  0  0  0  0  0  0  0  0  0  0
    5.4426   -6.7526   24.1279 H   0  0  0  0  0  0  0  0  0  0  0  0
    7.4354   -7.0294   22.4502 H   0  0  0  0  0  0  0  0  0  0  0  0
    8.7122   -5.7981   22.5091 H   0  0  0  0  0  0  0  0  0  0  0  0
    4.0154   -4.9070   23.3283 H   0  0  0  0  0  0  0  0  0  0  0  0
    5.3636   -3.7634   23.3893 H   0  0  0  0  0  0  0  0  0  0  0  0
    7.1518   -4.0268   21.8174 H   0  0  0  0  0  0  0  0  0  0  0  0
    7.0770   -5.3686   20.6691 H   0  0  0  0  0  0  0  0  0  0  0  0
    9.2853   -0.6803   21.7065 H   0  0  0  0  0  0  0  0  0  0  0  0
    9.6020   -2.3876   21.9912 H   0  0  0  0  0  0  0  0  0  0  0  0
   11.6520   -4.2685   27.0410 H   0  0  0  0  0  0  0  0  0  0  0  0
   11.3213   -3.7578   25.3976 H   0  0  0  0  0  0  0  0  0  0  0  0
   11.3082   -6.2318   25.5636 H   0  0  0  0  0  0  0  0  0  0  0  0
   10.0393   -6.1881   26.8014 H   0  0  0  0  0  0  0  0  0  0  0  0
   10.3022   -2.8020   24.3322 H   0  0  0  0  0  0  0  0  0  0  0  0
    9.7443   -5.7684   23.9228 H   0  0  0  0  0  0  0  0  0  0  0  0
  1  2  1  0  0  0  0
  1  3  2  0  0  0  0
  1 28  1  0  0  0  0
  2  4  2  0  0  0  0
  2 29  1  0  0  0  0
  3  5  1  0  0  0  0
  3 30  1  0  0  0  0
  4  9  1  0  0  0  0
  4 31  1  0  0  0  0
  5  9  2  0  0  0  0
  5 32  1  0  0  0  0
  6  7  2  0  0  0  0
  6 10  1  0  0  0  0
  6 33  1  0  0  0  0
  7 21  1  0  0  0  0
  7 34  1  0  0  0  0
  8 11  1  0  0  0  0
  8 21  2  0  0  0  0
  8 35  1  0  0  0  0
  9 18  1  0  0  0  0
 10 11  2  0  0  0  0
 10 19  1  0  0  0  0
 11 23  1  0  0  0  0
 12 18  1  0  0  0  0
 12 23  1  0  0  0  0
 12 25  2  0  0  0  0
 13 22  1  0  0  0  0
 13 24  1  0  0  0  0
 13 26  2  0  0  0  0
 14 16  1  0  0  0  0
 14 22  1  0  0  0  0
 14 36  1  0  0  0  0
 14 37  1  0  0  0  0
 15 17  1  0  0  0  0
 15 22  1  0  0  0  0
 15 38  1  0  0  0  0
 15 39  1  0  0  0  0
 16 27  1  0  0  0  0
 16 40  1  0  0  0  0
 16 41  1  0  0  0  0
 17 27  1  0  0  0  0
 17 42  1  0  0  0  0
 17 43  1  0  0  0  0
 18 44  1  0  0  0  0
 18 45  1  0  0  0  0
 19 20  1  0  0  0  0
 19 46  1  0  0  0  0
 19 47  1  0  0  0  0
 20 24  1  0  0  0  0
 20 48  1  0  0  0  0
 20 49  1  0  0  0  0
 23 50  1  0  0  0  0
 24 51  1  0  0  0  0
M  END
>  <Chemgauss4 Score>
-5.07908535003662

>  <Number of Confs>
200

$$$$
