DUN-NEW-f8c-3
 OpenBabel03242009303D

 47 49  0  0  1  0  0  0  0  0999 V2000
    5.7159   -4.0696   22.7328 C   0  0  0  0  0  0  0  0  0  0  0  0
    5.2547   -4.7152   23.8800 C   0  0  0  0  0  0  0  0  0  0  0  0
    6.9235   -3.3722   22.7627 C   0  0  0  0  0  0  0  0  0  0  0  0
    6.0012   -4.6633   25.0572 C   0  0  0  0  0  0  0  0  0  0  0  0
    7.6700   -3.3203   23.9398 C   0  0  0  0  0  0  0  0  0  0  0  0
    7.2088   -3.9659   25.0871 C   0  0  0  0  0  0  0  0  0  0  0  0
    9.4653   -5.8100   26.1012 C   0  0  0  0  0  0  0  0  0  0  0  0
   11.9786    0.0938   23.7000 C   0  0  0  0  0  0  0  0  0  0  0  0
    8.6496   -3.0526   28.3213 C   0  0  0  0  0  0  0  0  0  0  0  0
    9.6331   -4.1315   27.9000 C   0  0  0  0  0  0  0  0  0  0  0  0
    7.4029   -3.3641   27.5026 C   0  0  0  0  0  0  0  0  0  0  0  0
    9.0050   -1.4874   24.8864 C   0  0  0  0  0  0  0  0  0  0  0  0
    9.6707   -2.5170   22.7147 C   0  0  0  0  0  0  0  0  0  0  0  0
   10.4766   -1.2036   25.1789 C   0  0  0  0  0  0  0  0  0  0  0  0
   11.1323   -2.2124   23.0426 C   0  0  0  0  0  0  0  0  0  0  0  0
    9.3253   -4.3548   26.4160 C   0  0  2  0  0  0  0  0  0  0  0  0
   12.1357    0.5099   22.2594 C   0  0  0  0  0  0  0  0  0  0  0  0
    8.8782   -2.6141   23.9481 N   0  0  0  0  0  0  0  0  0  0  0  0
    7.9323   -3.9271   26.2629 N   0  0  0  0  0  0  0  0  0  0  0  0
   11.2319   -1.0577   23.9373 N   0  0  0  0  0  0  0  0  0  0  0  0
   10.7364   -6.1766   25.7270 N   0  0  0  0  0  0  0  0  0  0  0  0
    8.5214   -6.5912   26.1920 O   0  0  0  0  0  0  0  0  0  0  0  0
   12.5027    0.7737   24.5859 O   0  0  0  0  0  0  0  0  0  0  0  0
   13.6082   -0.2546   21.6733 Cl  0  0  0  0  0  0  0  0  0  0  0  0
    5.1349   -4.1105   21.8161 H   0  0  0  0  0  0  0  0  0  0  0  0
    4.3149   -5.2589   23.8564 H   0  0  0  0  0  0  0  0  0  0  0  0
    7.2725   -2.8728   21.8623 H   0  0  0  0  0  0  0  0  0  0  0  0
    5.6319   -5.1709   25.9448 H   0  0  0  0  0  0  0  0  0  0  0  0
    8.4278   -3.1373   29.3918 H   0  0  0  0  0  0  0  0  0  0  0  0
    9.0320   -2.0454   28.1308 H   0  0  0  0  0  0  0  0  0  0  0  0
   10.6598   -3.7611   28.0146 H   0  0  0  0  0  0  0  0  0  0  0  0
    9.5229   -5.0369   28.5066 H   0  0  0  0  0  0  0  0  0  0  0  0
    6.7404   -4.0715   28.0142 H   0  0  0  0  0  0  0  0  0  0  0  0
    6.8432   -2.4411   27.3017 H   0  0  0  0  0  0  0  0  0  0  0  0
    8.4762   -1.7203   25.8166 H   0  0  0  0  0  0  0  0  0  0  0  0
    8.5458   -0.5934   24.4537 H   0  0  0  0  0  0  0  0  0  0  0  0
    9.2507   -1.7280   22.0823 H   0  0  0  0  0  0  0  0  0  0  0  0
    9.6223   -3.4517   22.1453 H   0  0  0  0  0  0  0  0  0  0  0  0
   10.5817   -0.2744   25.7369 H   0  0  0  0  0  0  0  0  0  0  0  0
   10.8903   -2.0125   25.7739 H   0  0  0  0  0  0  0  0  0  0  0  0
   11.6009   -3.0589   23.5468 H   0  0  0  0  0  0  0  0  0  0  0  0
   11.6870   -2.0202   22.1248 H   0  0  0  0  0  0  0  0  0  0  0  0
   10.0383   -3.7965   25.7941 H   0  0  0  0  0  0  0  0  0  0  0  0
   12.2323    1.5883   22.2149 H   0  0  0  0  0  0  0  0  0  0  0  0
   11.2809    0.1536   21.6968 H   0  0  0  0  0  0  0  0  0  0  0  0
   11.4584   -5.4645   25.6925 H   0  0  0  0  0  0  0  0  0  0  0  0
   10.9816   -7.1310   25.4840 H   0  0  0  0  0  0  0  0  0  0  0  0
  1  2  1  0  0  0  0
  1  3  2  0  0  0  0
  1 25  1  0  0  0  0
  2  4  2  0  0  0  0
  2 26  1  0  0  0  0
  3  5  1  0  0  0  0
  3 27  1  0  0  0  0
  4  6  1  0  0  0  0
  4 28  1  0  0  0  0
  5  6  2  0  0  0  0
  5 18  1  0  0  0  0
  6 19  1  0  0  0  0
  7 16  1  0  0  0  0
  7 21  1  0  0  0  0
  7 22  2  0  0  0  0
  8 17  1  0  0  0  0
  8 20  1  0  0  0  0
  8 23  2  0  0  0  0
  9 10  1  0  0  0  0
  9 11  1  0  0  0  0
  9 29  1  0  0  0  0
  9 30  1  0  0  0  0
 10 16  1  0  0  0  0
 10 31  1  0  0  0  0
 10 32  1  0  0  0  0
 11 19  1  0  0  0  0
 11 33  1  0  0  0  0
 11 34  1  0  0  0  0
 12 14  1  0  0  0  0
 12 18  1  0  0  0  0
 12 35  1  0  0  0  0
 12 36  1  0  0  0  0
 13 15  1  0  0  0  0
 13 18  1  0  0  0  0
 13 37  1  0  0  0  0
 13 38  1  0  0  0  0
 14 20  1  0  0  0  0
 14 39  1  0  0  0  0
 14 40  1  0  0  0  0
 15 20  1  0  0  0  0
 15 41  1  0  0  0  0
 15 42  1  0  0  0  0
 16 19  1  0  0  0  0
 16 43  1  6  0  0  0
 17 24  1  0  0  0  0
 17 44  1  0  0  0  0
 17 45  1  0  0  0  0
 21 46  1  0  0  0  0
 21 47  1  0  0  0  0
M  END
>  <Chemgauss4 Score>
-5.2954568862915

>  <Number of Confs>
136

$$$$
