HAN-NEW-5f5-4
 OpenBabel03242009303D

 62 64  0  0  1  0  0  0  0  0999 V2000
   10.0903   -1.3111   26.8380 C   0  0  0  0  0  0  0  0  0  0  0  0
   10.7078   -0.6361   25.7787 C   0  0  0  0  0  0  0  0  0  0  0  0
    9.9264   -2.6945   26.8033 C   0  0  0  0  0  0  0  0  0  0  0  0
   12.0209   -2.1903   22.7421 C   0  0  0  0  0  0  0  0  0  0  0  0
   11.1658   -1.3727   24.6682 C   0  0  0  0  0  0  0  0  0  0  0  0
   10.3725   -3.4460   25.7124 C   0  0  0  0  0  0  0  0  0  0  0  0
   11.8185   -1.0289   23.4514 C   0  0  0  0  0  0  0  0  0  0  0  0
   10.9880   -2.7578   24.6607 C   0  0  0  0  0  0  0  0  0  0  0  0
    5.8945   -5.5936   27.1660 C   0  0  0  0  0  0  0  0  0  0  0  0
    5.6188   -2.2752   22.7278 C   0  0  0  0  0  0  0  0  0  0  0  0
    8.9097    1.5894   21.6356 C   0  0  0  0  0  0  0  0  0  0  0  0
    4.6773   -2.8339   24.9439 C   0  0  0  0  0  0  0  0  0  0  0  0
    5.4629   -3.3072   26.1615 C   0  0  0  0  0  0  0  0  0  0  0  0
    5.5996   -4.6646   23.5921 C   0  0  0  0  0  0  0  0  0  0  0  0
    6.4184   -5.1756   24.7839 C   0  0  1  0  0  0  0  0  0  0  0  0
    5.5104   -5.0162   28.5054 C   0  0  0  0  0  0  0  0  0  0  0  0
    7.5834    1.6317   22.3193 C   0  0  0  0  0  0  0  0  0  0  0  0
   10.1791   -4.9415   25.7078 C   0  0  0  0  0  0  0  0  0  0  0  0
   12.2117    0.3272   23.0177 C   0  0  0  0  0  0  0  0  0  0  0  0
    6.3016   -2.7701   21.4778 C   0  0  0  0  0  0  0  0  0  0  0  0
    7.8916   -4.7710   24.6728 C   0  0  0  0  0  0  0  0  0  0  0  0
    8.7008   -5.3171   25.8438 C   0  0  0  0  0  0  0  0  0  0  0  0
   11.2885    0.9357   21.9466 C   0  0  0  0  0  0  0  0  0  0  0  0
   11.5163   -3.2277   23.4795 N   0  0  0  0  0  0  0  0  0  0  0  0
    5.3333   -3.2298   23.7025 N   0  0  0  0  0  0  0  0  0  0  0  0
    5.8513   -4.7236   26.0703 N   0  0  0  0  0  0  0  0  0  0  0  0
    9.9336    1.0687   22.4106 N   0  0  0  0  0  0  0  0  0  0  0  0
    6.2196   -6.7817   27.0933 O   0  0  0  0  0  0  0  0  0  0  0  0
    5.3511   -1.0757   22.8343 O   0  0  0  0  0  0  0  0  0  0  0  0
    9.0092    1.9968   20.4842 O   0  0  0  0  0  0  0  0  0  0  0  0
    6.5011   -1.3730   20.4261 Cl  0  0  0  0  0  0  0  0  0  0  0  0
    9.7345   -0.7480   27.6968 H   0  0  0  0  0  0  0  0  0  0  0  0
   10.8278    0.4426   25.8217 H   0  0  0  0  0  0  0  0  0  0  0  0
    9.4416   -3.1896   27.6417 H   0  0  0  0  0  0  0  0  0  0  0  0
   12.4778   -2.3732   21.7794 H   0  0  0  0  0  0  0  0  0  0  0  0
    3.6765   -3.2825   24.9412 H   0  0  0  0  0  0  0  0  0  0  0  0
    4.5464   -1.7481   24.9886 H   0  0  0  0  0  0  0  0  0  0  0  0
    6.3887   -2.7288   26.2632 H   0  0  0  0  0  0  0  0  0  0  0  0
    4.8682   -3.1161   27.0573 H   0  0  0  0  0  0  0  0  0  0  0  0
    6.0995   -4.9201   22.6555 H   0  0  0  0  0  0  0  0  0  0  0  0
    4.6233   -5.1652   23.5730 H   0  0  0  0  0  0  0  0  0  0  0  0
    6.3843   -6.2717   24.7589 H   0  0  0  0  0  0  0  0  0  0  0  0
    4.4428   -5.1408   28.6521 H   0  0  0  0  0  0  0  0  0  0  0  0
    5.7672   -3.9620   28.5244 H   0  0  0  0  0  0  0  0  0  0  0  0
    6.0557   -5.5371   29.2857 H   0  0  0  0  0  0  0  0  0  0  0  0
    7.4198    2.5769   22.8615 H   0  0  0  0  0  0  0  0  0  0  0  0
    6.7428    1.5529   21.6113 H   0  0  0  0  0  0  0  0  0  0  0  0
    7.4110    0.8374   23.0630 H   0  0  0  0  0  0  0  0  0  0  0  0
   10.5865   -5.3650   24.7807 H   0  0  0  0  0  0  0  0  0  0  0  0
   10.7540   -5.3922   26.5271 H   0  0  0  0  0  0  0  0  0  0  0  0
   13.2414    0.3119   22.6092 H   0  0  0  0  0  0  0  0  0  0  0  0
   12.2648    1.0256   23.8772 H   0  0  0  0  0  0  0  0  0  0  0  0
    5.6677   -3.5083   20.9998 H   0  0  0  0  0  0  0  0  0  0  0  0
    7.2703   -3.1771   21.7442 H   0  0  0  0  0  0  0  0  0  0  0  0
    7.9518   -3.6805   24.6450 H   0  0  0  0  0  0  0  0  0  0  0  0
    8.2865   -5.1510   23.7276 H   0  0  0  0  0  0  0  0  0  0  0  0
    8.3011   -4.9220   26.7864 H   0  0  0  0  0  0  0  0  0  0  0  0
    8.5962   -6.4085   25.8899 H   0  0  0  0  0  0  0  0  0  0  0  0
   11.6246    1.9379   21.6623 H   0  0  0  0  0  0  0  0  0  0  0  0
   11.2695    0.3137   21.0456 H   0  0  0  0  0  0  0  0  0  0  0  0
   11.5306   -4.1979   23.1967 H   0  0  0  0  0  0  0  0  0  0  0  0
    9.7154    0.7643   23.3581 H   0  0  0  0  0  0  0  0  0  0  0  0
  1  2  2  0  0  0  0
  1  3  1  0  0  0  0
  1 32  1  0  0  0  0
  2  5  1  0  0  0  0
  2 33  1  0  0  0  0
  3  6  2  0  0  0  0
  3 34  1  0  0  0  0
  4  7  2  0  0  0  0
  4 24  1  0  0  0  0
  4 35  1  0  0  0  0
  5  7  1  0  0  0  0
  5  8  2  0  0  0  0
  6  8  1  0  0  0  0
  6 18  1  0  0  0  0
  7 19  1  0  0  0  0
  8 24  1  0  0  0  0
  9 16  1  0  0  0  0
  9 26  1  0  0  0  0
  9 28  2  0  0  0  0
 10 20  1  0  0  0  0
 10 25  1  0  0  0  0
 10 29  2  0  0  0  0
 11 17  1  0  0  0  0
 11 27  1  0  0  0  0
 11 30  2  0  0  0  0
 12 13  1  0  0  0  0
 12 25  1  0  0  0  0
 12 36  1  0  0  0  0
 12 37  1  0  0  0  0
 13 26  1  0  0  0  0
 13 38  1  0  0  0  0
 13 39  1  0  0  0  0
 14 15  1  0  0  0  0
 14 25  1  0  0  0  0
 14 40  1  0  0  0  0
 14 41  1  0  0  0  0
 15 21  1  0  0  0  0
 15 26  1  0  0  0  0
 15 42  1  6  0  0  0
 16 43  1  0  0  0  0
 16 44  1  0  0  0  0
 16 45  1  0  0  0  0
 17 46  1  0  0  0  0
 17 47  1  0  0  0  0
 17 48  1  0  0  0  0
 18 22  1  0  0  0  0
 18 49  1  0  0  0  0
 18 50  1  0  0  0  0
 19 23  1  0  0  0  0
 19 51  1  0  0  0  0
 19 52  1  0  0  0  0
 20 31  1  0  0  0  0
 20 53  1  0  0  0  0
 20 54  1  0  0  0  0
 21 22  1  0  0  0  0
 21 55  1  0  0  0  0
 21 56  1  0  0  0  0
 22 57  1  0  0  0  0
 22 58  1  0  0  0  0
 23 27  1  0  0  0  0
 23 59  1  0  0  0  0
 23 60  1  0  0  0  0
 24 61  1  0  0  0  0
 27 62  1  0  0  0  0
M  END
>  <Chemgauss4 Score>
-5.09333419799805

>  <Number of Confs>
200

$$$$
