DAR-DIA-fc9-10
 OpenBabel03242009303D

 37 39  0  0  0  0  0  0  0  0999 V2000
   14.0420   -1.2463   22.7585 C   0  0  0  0  0  0  0  0  0  0  0  0
   13.8241   -1.7424   24.0438 C   0  0  0  0  0  0  0  0  0  0  0  0
   12.9664   -1.0657   21.8890 C   0  0  0  0  0  0  0  0  0  0  0  0
    8.2800   -6.1758   27.7483 C   0  0  0  0  0  0  0  0  0  0  0  0
   12.5306   -2.0580   24.4596 C   0  0  0  0  0  0  0  0  0  0  0  0
   11.6728   -1.3813   22.3047 C   0  0  0  0  0  0  0  0  0  0  0  0
    8.6326   -5.2711   26.7531 C   0  0  0  0  0  0  0  0  0  0  0  0
    7.9248   -5.6700   28.9884 C   0  0  0  0  0  0  0  0  0  0  0  0
    8.2487   -3.5032   28.2969 C   0  0  0  0  0  0  0  0  0  0  0  0
   11.4549   -1.8774   23.5900 C   0  0  0  0  0  0  0  0  0  0  0  0
    8.6193   -3.9075   27.0245 C   0  0  0  0  0  0  0  0  0  0  0  0
    9.9161   -3.2395   24.9752 C   0  0  0  0  0  0  0  0  0  0  0  0
    7.5727   -1.9871   23.7316 C   0  0  0  0  0  0  0  0  0  0  0  0
    7.2531   -1.4003   25.1003 C   0  0  0  0  0  0  0  0  0  0  0  0
    8.9804   -1.6402   23.2516 C   0  0  0  0  0  0  0  0  0  0  0  0
    8.3834   -1.5977   26.1008 C   0  0  0  0  0  0  0  0  0  0  0  0
    7.8999   -4.3523   29.2894 N   0  0  0  0  0  0  0  0  0  0  0  0
   10.1107   -2.2053   24.0224 N   0  0  0  0  0  0  0  0  0  0  0  0
    8.9815   -2.9407   26.0091 N   0  0  0  0  0  0  0  0  0  0  0  0
   10.5198   -4.3112   24.8626 O   0  0  0  0  0  0  0  0  0  0  0  0
   15.0490   -0.9997   22.4347 H   0  0  0  0  0  0  0  0  0  0  0  0
   14.6612   -1.8823   24.7213 H   0  0  0  0  0  0  0  0  0  0  0  0
   13.1363   -0.6784   20.8885 H   0  0  0  0  0  0  0  0  0  0  0  0
    8.2832   -7.2432   27.5592 H   0  0  0  0  0  0  0  0  0  0  0  0
   12.3729   -2.4438   25.4636 H   0  0  0  0  0  0  0  0  0  0  0  0
   10.8422   -1.2363   21.6184 H   0  0  0  0  0  0  0  0  0  0  0  0
    8.9158   -5.6392   25.7705 H   0  0  0  0  0  0  0  0  0  0  0  0
    7.6424   -6.3343   29.7985 H   0  0  0  0  0  0  0  0  0  0  0  0
    8.2188   -2.4523   28.5690 H   0  0  0  0  0  0  0  0  0  0  0  0
    7.4487   -3.0778   23.7508 H   0  0  0  0  0  0  0  0  0  0  0  0
    6.8435   -1.6055   23.0059 H   0  0  0  0  0  0  0  0  0  0  0  0
    7.0237   -0.3312   25.0068 H   0  0  0  0  0  0  0  0  0  0  0  0
    6.3447   -1.8802   25.4845 H   0  0  0  0  0  0  0  0  0  0  0  0
    9.0819   -1.9813   22.1959 H   0  0  0  0  0  0  0  0  0  0  0  0
    9.1051   -0.5332   23.2003 H   0  0  0  0  0  0  0  0  0  0  0  0
    9.1628   -0.8547   25.9007 H   0  0  0  0  0  0  0  0  0  0  0  0
    8.0294   -1.4274   27.1229 H   0  0  0  0  0  0  0  0  0  0  0  0
  1  2  1  0  0  0  0
  1  3  2  0  0  0  0
  1 21  1  0  0  0  0
  2  5  2  0  0  0  0
  2 22  1  0  0  0  0
  3  6  1  0  0  0  0
  3 23  1  0  0  0  0
  4  7  2  0  0  0  0
  4  8  1  0  0  0  0
  4 24  1  0  0  0  0
  5 10  1  0  0  0  0
  5 25  1  0  0  0  0
  6 10  2  0  0  0  0
  6 26  1  0  0  0  0
  7 11  1  0  0  0  0
  7 27  1  0  0  0  0
  8 17  2  0  0  0  0
  8 28  1  0  0  0  0
  9 11  2  0  0  0  0
  9 17  1  0  0  0  0
  9 29  1  0  0  0  0
 10 18  1  0  0  0  0
 11 19  1  0  0  0  0
 12 18  1  0  0  0  0
 12 19  1  0  0  0  0
 12 20  2  0  0  0  0
 13 14  1  0  0  0  0
 13 15  1  0  0  0  0
 13 30  1  0  0  0  0
 13 31  1  0  0  0  0
 14 16  1  0  0  0  0
 14 32  1  0  0  0  0
 14 33  1  0  0  0  0
 15 18  1  0  0  0  0
 15 34  1  0  0  0  0
 15 35  1  0  0  0  0
 16 19  1  0  0  0  0
 16 36  1  0  0  0  0
 16 37  1  0  0  0  0
M  END
>  <Chemgauss4 Score>
-4.89683866500854

>  <Number of Confs>
50

$$$$
