DAN-LON-a5f-2
 OpenBabel03242009303D

 41 43  0  0  1  0  0  0  0  0999 V2000
   12.0888    0.1955   24.6899 C   0  0  0  0  0  0  0  0  0  0  0  0
    7.8650   -4.8484   29.0639 C   0  0  0  0  0  0  0  0  0  0  0  0
   11.2019   -0.7355   25.2304 C   0  0  0  0  0  0  0  0  0  0  0  0
   12.7422   -0.0795   23.4886 C   0  0  0  0  0  0  0  0  0  0  0  0
    7.4916   -3.8490   28.1195 C   0  0  0  0  0  0  0  0  0  0  0  0
   11.6218   -2.2166   23.3684 C   0  0  0  0  0  0  0  0  0  0  0  0
    8.4811   -5.9239   28.4629 C   0  0  0  0  0  0  0  0  0  0  0  0
   10.9684   -1.9416   24.5697 C   0  0  0  0  0  0  0  0  0  0  0  0
   12.5087   -1.2856   22.8279 C   0  0  0  0  0  0  0  0  0  0  0  0
    7.8369   -4.1987   26.8325 C   0  0  0  0  0  0  0  0  0  0  0  0
    6.0634   -3.6984   22.1654 C   0  0  0  0  0  0  0  0  0  0  0  0
    7.9975   -2.3448   22.8806 C   0  0  0  0  0  0  0  0  0  0  0  0
    8.2986   -1.5543   24.1539 C   0  0  0  0  0  0  0  0  0  0  0  0
    7.3286   -4.2700   24.2923 C   0  0  0  0  0  0  0  0  0  0  0  0
    7.6175   -3.4124   25.5440 C   0  0  2  0  0  0  0  0  0  0  0  0
   10.0145   -2.9437   25.1528 C   0  0  0  0  0  0  0  0  0  0  0  0
    5.1104   -4.8253   22.4751 C   0  0  0  0  0  0  0  0  0  0  0  0
    7.0456   -3.4290   23.1206 N   0  0  0  0  0  0  0  0  0  0  0  0
    8.6665   -2.3931   25.3046 N   0  0  0  0  0  0  0  0  0  0  0  0
    5.9362   -3.0744   21.1087 O   0  0  0  0  0  0  0  0  0  0  0  0
    8.6076   -5.7265   26.7666 S   0  0  0  0  0  0  0  0  0  0  0  0
   13.3160   -1.6249   21.3463 Cl  0  0  0  0  0  0  0  0  0  0  0  0
    5.8138   -6.2839   21.7854 Cl  0  0  0  0  0  0  0  0  0  0  0  0
   12.2705    1.1345   25.2048 H   0  0  0  0  0  0  0  0  0  0  0  0
    7.6915   -4.7823   30.1300 H   0  0  0  0  0  0  0  0  0  0  0  0
   10.6973   -0.5129   26.1670 H   0  0  0  0  0  0  0  0  0  0  0  0
   13.4310    0.6553   23.0791 H   0  0  0  0  0  0  0  0  0  0  0  0
    6.9962   -2.9213   28.3765 H   0  0  0  0  0  0  0  0  0  0  0  0
   11.4359   -3.1582   22.8569 H   0  0  0  0  0  0  0  0  0  0  0  0
    8.8627   -6.8163   28.9387 H   0  0  0  0  0  0  0  0  0  0  0  0
    7.6153   -1.6649   22.1118 H   0  0  0  0  0  0  0  0  0  0  0  0
    8.9086   -2.8009   22.4766 H   0  0  0  0  0  0  0  0  0  0  0  0
    9.0842   -0.8149   23.9546 H   0  0  0  0  0  0  0  0  0  0  0  0
    7.4109   -0.9671   24.4241 H   0  0  0  0  0  0  0  0  0  0  0  0
    8.1823   -4.9081   24.0321 H   0  0  0  0  0  0  0  0  0  0  0  0
    6.4930   -4.9428   24.5027 H   0  0  0  0  0  0  0  0  0  0  0  0
    6.6785   -2.8234   25.7565 H   0  0  0  0  0  0  0  0  0  0  0  0
    9.9467   -3.8301   24.5127 H   0  0  0  0  0  0  0  0  0  0  0  0
   10.3518   -3.2798   26.1389 H   0  0  0  0  0  0  0  0  0  0  0  0
    4.1549   -4.6160   22.0078 H   0  0  0  0  0  0  0  0  0  0  0  0
    5.0236   -4.9265   23.5509 H   0  0  0  0  0  0  0  0  0  0  0  0
  1  3  2  0  0  0  0
  1  4  1  0  0  0  0
  1 24  1  0  0  0  0
  2  5  1  0  0  0  0
  2  7  2  0  0  0  0
  2 25  1  0  0  0  0
  3  8  1  0  0  0  0
  3 26  1  0  0  0  0
  4  9  2  0  0  0  0
  4 27  1  0  0  0  0
  5 10  2  0  0  0  0
  5 28  1  0  0  0  0
  6  8  2  0  0  0  0
  6  9  1  0  0  0  0
  6 29  1  0  0  0  0
  7 21  1  0  0  0  0
  7 30  1  0  0  0  0
  8 16  1  0  0  0  0
  9 22  1  0  0  0  0
 10 15  1  0  0  0  0
 10 21  1  0  0  0  0
 11 17  1  0  0  0  0
 11 18  1  0  0  0  0
 11 20  2  0  0  0  0
 12 13  1  0  0  0  0
 12 18  1  0  0  0  0
 12 31  1  0  0  0  0
 12 32  1  0  0  0  0
 13 19  1  0  0  0  0
 13 33  1  0  0  0  0
 13 34  1  0  0  0  0
 14 15  1  0  0  0  0
 14 18  1  0  0  0  0
 14 35  1  0  0  0  0
 14 36  1  0  0  0  0
 15 19  1  0  0  0  0
 15 37  1  1  0  0  0
 16 19  1  0  0  0  0
 16 38  1  0  0  0  0
 16 39  1  0  0  0  0
 17 23  1  0  0  0  0
 17 40  1  0  0  0  0
 17 41  1  0  0  0  0
M  END
>  <Chemgauss4 Score>
-5.54319381713867

>  <Number of Confs>
162

$$$$
