AGN-NEW-891-2
 OpenBabel03242009303D

 27 28  0  0  0  0  0  0  0  0999 V2000
   12.9724   -0.6548   22.6244 C   0  0  0  0  0  0  0  0  0  0  0  0
   11.9758   -1.6226   22.5664 C   0  0  0  0  0  0  0  0  0  0  0  0
    8.6449   -4.7098   25.8195 C   0  0  0  0  0  0  0  0  0  0  0  0
    7.2520   -6.3877   26.8593 C   0  0  0  0  0  0  0  0  0  0  0  0
    6.5459   -5.3377   24.8012 C   0  0  0  0  0  0  0  0  0  0  0  0
   12.8214    0.3780   23.5357 C   0  0  0  0  0  0  0  0  0  0  0  0
   10.8171   -0.4576   24.2859 C   0  0  0  0  0  0  0  0  0  0  0  0
   10.8741   -1.5294   23.4096 C   0  0  0  0  0  0  0  0  0  0  0  0
    8.4159   -5.6190   26.8521 C   0  0  0  0  0  0  0  0  0  0  0  0
    7.7098   -4.5690   24.7940 C   0  0  0  0  0  0  0  0  0  0  0  0
    6.3169   -6.2470   25.8338 C   0  0  0  0  0  0  0  0  0  0  0  0
    8.6957   -2.5464   24.1394 C   0  0  0  0  0  0  0  0  0  0  0  0
   11.7656    0.5019   24.3709 N   0  0  0  0  0  0  0  0  0  0  0  0
    9.8451   -2.4976   23.3737 N   0  0  0  0  0  0  0  0  0  0  0  0
    8.3389   -1.7565   25.0060 O   0  0  0  0  0  0  0  0  0  0  0  0
    9.3287   -5.7565   27.8526 O   0  0  0  0  0  0  0  0  0  0  0  0
    7.9335   -3.6821   23.7860 O   0  0  0  0  0  0  0  0  0  0  0  0
    4.8818   -7.1967   25.8422 Cl  0  0  0  0  0  0  0  0  0  0  0  0
   13.8401   -0.7074   21.9766 H   0  0  0  0  0  0  0  0  0  0  0  0
   12.0675   -2.4444   21.8612 H   0  0  0  0  0  0  0  0  0  0  0  0
    9.5523   -4.1112   25.8140 H   0  0  0  0  0  0  0  0  0  0  0  0
    7.0808   -7.0945   27.6680 H   0  0  0  0  0  0  0  0  0  0  0  0
    5.8221   -5.2220   23.9977 H   0  0  0  0  0  0  0  0  0  0  0  0
   13.5706    1.1583   23.6192 H   0  0  0  0  0  0  0  0  0  0  0  0
    9.9824   -0.3307   24.9689 H   0  0  0  0  0  0  0  0  0  0  0  0
    9.9653   -3.2514   22.7013 H   0  0  0  0  0  0  0  0  0  0  0  0
    9.0293   -6.4226   28.4917 H   0  0  0  0  0  0  0  0  0  0  0  0
  1  2  2  0  0  0  0
  1  6  1  0  0  0  0
  1 19  1  0  0  0  0
  2  8  1  0  0  0  0
  2 20  1  0  0  0  0
  3  9  2  0  0  0  0
  3 10  1  0  0  0  0
  3 21  1  0  0  0  0
  4  9  1  0  0  0  0
  4 11  2  0  0  0  0
  4 22  1  0  0  0  0
  5 10  2  0  0  0  0
  5 11  1  0  0  0  0
  5 23  1  0  0  0  0
  6 13  2  0  0  0  0
  6 24  1  0  0  0  0
  7  8  2  0  0  0  0
  7 13  1  0  0  0  0
  7 25  1  0  0  0  0
  8 14  1  0  0  0  0
  9 16  1  0  0  0  0
 10 17  1  0  0  0  0
 11 18  1  0  0  0  0
 12 14  1  0  0  0  0
 12 15  2  0  0  0  0
 12 17  1  0  0  0  0
 14 26  1  0  0  0  0
 16 27  1  0  0  0  0
M  END
>  <Chemgauss4 Score>
-4.89531993865967

>  <Number of Confs>
56

$$$$
