DAN-LON-a5f-5
 OpenBabel03242009303D

 44 46  0  0  1  0  0  0  0  0999 V2000
   11.6458   -0.2458   25.0440 C   0  0  0  0  0  0  0  0  0  0  0  0
    8.7059   -2.1698   21.9957 C   0  0  0  0  0  0  0  0  0  0  0  0
    8.2447   -1.3452   24.2194 C   0  0  0  0  0  0  0  0  0  0  0  0
   11.0872   -1.4549   25.4582 C   0  0  0  0  0  0  0  0  0  0  0  0
   12.4113   -0.1939   23.8791 C   0  0  0  0  0  0  0  0  0  0  0  0
    8.6266   -0.8695   21.4971 C   0  0  0  0  0  0  0  0  0  0  0  0
    8.1655   -0.0449   23.7207 C   0  0  0  0  0  0  0  0  0  0  0  0
   12.0596   -2.5603   23.5426 C   0  0  0  0  0  0  0  0  0  0  0  0
    8.5149   -2.4076   23.3569 C   0  0  0  0  0  0  0  0  0  0  0  0
   11.2941   -2.6122   24.7075 C   0  0  0  0  0  0  0  0  0  0  0  0
    8.3564    0.1929   22.3596 C   0  0  0  0  0  0  0  0  0  0  0  0
   12.6182   -1.3512   23.1284 C   0  0  0  0  0  0  0  0  0  0  0  0
    5.1308   -3.9880   25.2351 C   0  0  0  0  0  0  0  0  0  0  0  0
    7.2122   -4.6766   26.3371 C   0  0  0  0  0  0  0  0  0  0  0  0
    8.7041   -4.9022   26.0980 C   0  0  0  0  0  0  0  0  0  0  0  0
    7.2079   -4.5000   23.8635 C   0  0  0  0  0  0  0  0  0  0  0  0
    8.6030   -3.8278   23.9023 C   0  0  2  0  0  0  0  0  0  0  0  0
   10.6935   -3.9135   25.1546 C   0  0  0  0  0  0  0  0  0  0  0  0
    4.2444   -4.3117   24.0597 C   0  0  0  0  0  0  0  0  0  0  0  0
    6.4755   -4.3393   25.1216 N   0  0  0  0  0  0  0  0  0  0  0  0
    9.2354   -3.8422   25.2411 N   0  0  0  0  0  0  0  0  0  0  0  0
    4.6489   -3.4352   26.2274 O   0  0  0  0  0  0  0  0  0  0  0  0
    8.2589    1.7968   21.7443 Cl  0  0  0  0  0  0  0  0  0  0  0  0
   13.5637   -1.2868   21.6918 Cl  0  0  0  0  0  0  0  0  0  0  0  0
    4.3447   -6.0521   23.8174 Cl  0  0  0  0  0  0  0  0  0  0  0  0
   11.4846    0.6552   25.6290 H   0  0  0  0  0  0  0  0  0  0  0  0
    8.9166   -2.9923   21.3173 H   0  0  0  0  0  0  0  0  0  0  0  0
    8.0949   -1.5220   25.2812 H   0  0  0  0  0  0  0  0  0  0  0  0
   10.4923   -1.4860   26.3673 H   0  0  0  0  0  0  0  0  0  0  0  0
   12.8408    0.7554   23.5685 H   0  0  0  0  0  0  0  0  0  0  0  0
    8.7780   -0.6994   20.4343 H   0  0  0  0  0  0  0  0  0  0  0  0
    7.9541    0.7731   24.4046 H   0  0  0  0  0  0  0  0  0  0  0  0
   12.2176   -3.4653   22.9605 H   0  0  0  0  0  0  0  0  0  0  0  0
    6.7773   -5.5722   26.8176 H   0  0  0  0  0  0  0  0  0  0  0  0
    7.0576   -3.8450   27.0511 H   0  0  0  0  0  0  0  0  0  0  0  0
    9.2052   -4.8865   27.0648 H   0  0  0  0  0  0  0  0  0  0  0  0
    8.8521   -5.8849   25.6500 H   0  0  0  0  0  0  0  0  0  0  0  0
    6.5798   -4.0505   23.0783 H   0  0  0  0  0  0  0  0  0  0  0  0
    7.3195   -5.5575   23.5969 H   0  0  0  0  0  0  0  0  0  0  0  0
    9.2753   -4.3823   23.1907 H   0  0  0  0  0  0  0  0  0  0  0  0
   10.9511   -4.7176   24.4567 H   0  0  0  0  0  0  0  0  0  0  0  0
   11.0735   -4.2038   26.1398 H   0  0  0  0  0  0  0  0  0  0  0  0
    4.6174   -3.7919   23.1847 H   0  0  0  0  0  0  0  0  0  0  0  0
    3.2262   -4.0270   24.2988 H   0  0  0  0  0  0  0  0  0  0  0  0
  1  4  2  0  0  0  0
  1  5  1  0  0  0  0
  1 26  1  0  0  0  0
  2  6  2  0  0  0  0
  2  9  1  0  0  0  0
  2 27  1  0  0  0  0
  3  7  1  0  0  0  0
  3  9  2  0  0  0  0
  3 28  1  0  0  0  0
  4 10  1  0  0  0  0
  4 29  1  0  0  0  0
  5 12  2  0  0  0  0
  5 30  1  0  0  0  0
  6 11  1  0  0  0  0
  6 31  1  0  0  0  0
  7 11  2  0  0  0  0
  7 32  1  0  0  0  0
  8 10  2  0  0  0  0
  8 12  1  0  0  0  0
  8 33  1  0  0  0  0
  9 17  1  0  0  0  0
 10 18  1  0  0  0  0
 11 23  1  0  0  0  0
 12 24  1  0  0  0  0
 13 19  1  0  0  0  0
 13 20  1  0  0  0  0
 13 22  2  0  0  0  0
 14 15  1  0  0  0  0
 14 20  1  0  0  0  0
 14 34  1  0  0  0  0
 14 35  1  0  0  0  0
 15 21  1  0  0  0  0
 15 36  1  0  0  0  0
 15 37  1  0  0  0  0
 16 17  1  0  0  0  0
 16 20  1  0  0  0  0
 16 38  1  0  0  0  0
 16 39  1  0  0  0  0
 17 21  1  0  0  0  0
 17 40  1  6  0  0  0
 18 21  1  0  0  0  0
 18 41  1  0  0  0  0
 18 42  1  0  0  0  0
 19 25  1  0  0  0  0
 19 43  1  0  0  0  0
 19 44  1  0  0  0  0
M  END
>  <Chemgauss4 Score>
-5.06172466278076

>  <Number of Confs>
102

$$$$
