DAN-LON-a5f-5
 OpenBabel03242009303D

 44 46  0  0  1  0  0  0  0  0999 V2000
   10.9142   -0.2013   24.8952 C   0  0  0  0  0  0  0  0  0  0  0  0
    7.9770   -3.8829   23.2974 C   0  0  0  0  0  0  0  0  0  0  0  0
    6.4908   -5.0490   24.8036 C   0  0  0  0  0  0  0  0  0  0  0  0
   10.4921   -1.4259   25.4128 C   0  0  0  0  0  0  0  0  0  0  0  0
   11.6903   -0.1641   23.7367 C   0  0  0  0  0  0  0  0  0  0  0  0
    7.4646   -4.6140   22.2257 C   0  0  0  0  0  0  0  0  0  0  0  0
    5.9784   -5.7802   23.7319 C   0  0  0  0  0  0  0  0  0  0  0  0
   11.6224   -2.5760   23.6137 C   0  0  0  0  0  0  0  0  0  0  0  0
    7.4901   -4.1004   24.5864 C   0  0  0  0  0  0  0  0  0  0  0  0
   10.8462   -2.6132   24.7721 C   0  0  0  0  0  0  0  0  0  0  0  0
    6.4653   -5.5626   22.4429 C   0  0  0  0  0  0  0  0  0  0  0  0
   12.0445   -1.3514   23.0961 C   0  0  0  0  0  0  0  0  0  0  0  0
    5.6857   -4.5918   28.3109 C   0  0  0  0  0  0  0  0  0  0  0  0
    8.2195   -4.6914   28.3229 C   0  0  0  0  0  0  0  0  0  0  0  0
    9.2132   -4.9382   27.1887 C   0  0  0  0  0  0  0  0  0  0  0  0
    7.0174   -3.0772   26.8869 C   0  0  0  0  0  0  0  0  0  0  0  0
    8.0500   -3.2985   25.7605 C   0  0  1  0  0  0  0  0  0  0  0  0
   10.3926   -3.9310   25.3306 C   0  0  0  0  0  0  0  0  0  0  0  0
    5.6848   -5.6169   29.4168 C   0  0  0  0  0  0  0  0  0  0  0  0
    6.9342   -4.1942   27.8283 N   0  0  0  0  0  0  0  0  0  0  0  0
    9.3335   -3.7688   26.3203 N   0  0  0  0  0  0  0  0  0  0  0  0
    4.6102   -4.1637   27.8840 O   0  0  0  0  0  0  0  0  0  0  0  0
    5.8333   -6.4643   21.1207 Cl  0  0  0  0  0  0  0  0  0  0  0  0
   13.0031   -1.3049   21.6675 Cl  0  0  0  0  0  0  0  0  0  0  0  0
    5.5986   -7.1943   28.6409 Cl  0  0  0  0  0  0  0  0  0  0  0  0
   10.6383    0.7230   25.3945 H   0  0  0  0  0  0  0  0  0  0  0  0
    8.7556   -3.1457   23.1201 H   0  0  0  0  0  0  0  0  0  0  0  0
    6.1059   -5.2244   25.8047 H   0  0  0  0  0  0  0  0  0  0  0  0
    9.8877   -1.4454   26.3159 H   0  0  0  0  0  0  0  0  0  0  0  0
   12.0124    0.7975   23.3448 H   0  0  0  0  0  0  0  0  0  0  0  0
    7.8534   -4.4334   21.2269 H   0  0  0  0  0  0  0  0  0  0  0  0
    5.2000   -6.5161   23.9163 H   0  0  0  0  0  0  0  0  0  0  0  0
   11.8955   -3.5045   23.1176 H   0  0  0  0  0  0  0  0  0  0  0  0
    8.1031   -5.6106   28.9006 H   0  0  0  0  0  0  0  0  0  0  0  0
    8.6094   -3.9282   29.0079 H   0  0  0  0  0  0  0  0  0  0  0  0
   10.1869   -5.1693   27.6380 H   0  0  0  0  0  0  0  0  0  0  0  0
    8.9064   -5.8237   26.6173 H   0  0  0  0  0  0  0  0  0  0  0  0
    7.3156   -2.2047   27.4832 H   0  0  0  0  0  0  0  0  0  0  0  0
    6.0294   -2.8501   26.4696 H   0  0  0  0  0  0  0  0  0  0  0  0
    8.2571   -2.2623   25.3281 H   0  0  0  0  0  0  0  0  0  0  0  0
   10.0124   -4.5781   24.5326 H   0  0  0  0  0  0  0  0  0  0  0  0
   11.2219   -4.4604   25.8114 H   0  0  0  0  0  0  0  0  0  0  0  0
    4.8119   -5.4604   30.0401 H   0  0  0  0  0  0  0  0  0  0  0  0
    6.6073   -5.5280   29.9787 H   0  0  0  0  0  0  0  0  0  0  0  0
  1  4  2  0  0  0  0
  1  5  1  0  0  0  0
  1 26  1  0  0  0  0
  2  6  2  0  0  0  0
  2  9  1  0  0  0  0
  2 27  1  0  0  0  0
  3  7  1  0  0  0  0
  3  9  2  0  0  0  0
  3 28  1  0  0  0  0
  4 10  1  0  0  0  0
  4 29  1  0  0  0  0
  5 12  2  0  0  0  0
  5 30  1  0  0  0  0
  6 11  1  0  0  0  0
  6 31  1  0  0  0  0
  7 11  2  0  0  0  0
  7 32  1  0  0  0  0
  8 10  2  0  0  0  0
  8 12  1  0  0  0  0
  8 33  1  0  0  0  0
  9 17  1  0  0  0  0
 10 18  1  0  0  0  0
 11 23  1  0  0  0  0
 12 24  1  0  0  0  0
 13 19  1  0  0  0  0
 13 20  1  0  0  0  0
 13 22  2  0  0  0  0
 14 15  1  0  0  0  0
 14 20  1  0  0  0  0
 14 34  1  0  0  0  0
 14 35  1  0  0  0  0
 15 21  1  0  0  0  0
 15 36  1  0  0  0  0
 15 37  1  0  0  0  0
 16 17  1  0  0  0  0
 16 20  1  0  0  0  0
 16 38  1  0  0  0  0
 16 39  1  0  0  0  0
 17 21  1  0  0  0  0
 17 40  1  6  0  0  0
 18 21  1  0  0  0  0
 18 41  1  0  0  0  0
 18 42  1  0  0  0  0
 19 25  1  0  0  0  0
 19 43  1  0  0  0  0
 19 44  1  0  0  0  0
M  END
>  <Chemgauss4 Score>
-5.43439245223999

>  <Number of Confs>
106

$$$$
