AGN-NEW-63f-2
 OpenBabel03242009303D

 48 50  0  0  1  0  0  0  0  0999 V2000
    7.5896   -4.3830   28.5038 C   0  0  0  0  0  0  0  0  0  0  0  0
   11.8658   -1.7822   22.1005 C   0  0  0  0  0  0  0  0  0  0  0  0
   13.2744    0.0709   22.7477 C   0  0  0  0  0  0  0  0  0  0  0  0
   11.4101   -0.5741   24.1426 C   0  0  0  0  0  0  0  0  0  0  0  0
    7.5198   -5.7618   28.3868 C   0  0  0  0  0  0  0  0  0  0  0  0
    7.9910   -5.6845   26.1395 C   0  0  0  0  0  0  0  0  0  0  0  0
    7.8769   -3.6464   27.3600 C   0  0  0  0  0  0  0  0  0  0  0  0
   12.9567   -0.9495   21.8513 C   0  0  0  0  0  0  0  0  0  0  0  0
   11.0925   -1.5945   23.2462 C   0  0  0  0  0  0  0  0  0  0  0  0
    8.0827   -4.3020   26.1512 C   0  0  0  0  0  0  0  0  0  0  0  0
   12.5011    0.2586   23.8934 C   0  0  0  0  0  0  0  0  0  0  0  0
    9.5449   -2.7541   24.8280 C   0  0  0  0  0  0  0  0  0  0  0  0
    6.1948    1.1284   20.4990 C   0  0  0  0  0  0  0  0  0  0  0  0
    6.5703    0.3605   21.5264 C   0  0  0  0  0  0  0  0  0  0  0  0
    7.0103   -1.0416   21.2969 C   0  0  0  0  0  0  0  0  0  0  0  0
    9.3285   -3.1203   22.3671 C   0  0  0  0  0  0  0  0  0  0  0  0
    7.4214   -3.7201   23.8180 C   0  0  0  0  0  0  0  0  0  0  0  0
    7.8235   -3.0453   22.5176 C   0  0  1  0  0  0  0  0  0  0  0  0
    7.9576   -2.1582   27.4573 C   0  0  0  0  0  0  0  0  0  0  0  0
   13.7842   -1.1501   20.6269 C   0  0  0  0  0  0  0  0  0  0  0  0
    7.7138   -6.4340   27.2300 N   0  0  0  0  0  0  0  0  0  0  0  0
    9.9648   -2.4547   23.5039 N   0  0  0  0  0  0  0  0  0  0  0  0
    8.3863   -3.5773   24.9264 N   0  0  0  0  0  0  0  0  0  0  0  0
    7.3595   -1.6760   22.4789 N   0  0  0  0  0  0  0  0  0  0  0  0
   10.1556   -2.3492   25.8225 O   0  0  0  0  0  0  0  0  0  0  0  0
    7.0509   -1.5463   20.1794 O   0  0  0  0  0  0  0  0  0  0  0  0
   12.8062    1.2384   24.7542 F   0  0  0  0  0  0  0  0  0  0  0  0
    7.4236   -3.9021   29.4618 H   0  0  0  0  0  0  0  0  0  0  0  0
   11.6200   -2.5775   21.4003 H   0  0  0  0  0  0  0  0  0  0  0  0
   14.1231    0.7239   22.5629 H   0  0  0  0  0  0  0  0  0  0  0  0
   10.8139   -0.4175   25.0379 H   0  0  0  0  0  0  0  0  0  0  0  0
    7.2986   -6.3818   29.2493 H   0  0  0  0  0  0  0  0  0  0  0  0
    8.1418   -6.2532   25.2267 H   0  0  0  0  0  0  0  0  0  0  0  0
    5.8740    2.1499   20.6744 H   0  0  0  0  0  0  0  0  0  0  0  0
    6.1951    0.7742   19.4740 H   0  0  0  0  0  0  0  0  0  0  0  0
    6.5557    0.7539   22.5370 H   0  0  0  0  0  0  0  0  0  0  0  0
    9.6529   -4.1594   22.3370 H   0  0  0  0  0  0  0  0  0  0  0  0
    9.6608   -2.6101   21.4638 H   0  0  0  0  0  0  0  0  0  0  0  0
    6.4546   -3.3158   24.1905 H   0  0  0  0  0  0  0  0  0  0  0  0
    7.2565   -4.8058   23.6426 H   0  0  0  0  0  0  0  0  0  0  0  0
    7.3320   -3.5523   21.6689 H   0  0  0  0  0  0  0  0  0  0  0  0
    8.9828   -1.8480   27.6905 H   0  0  0  0  0  0  0  0  0  0  0  0
    7.6537   -1.6825   26.5168 H   0  0  0  0  0  0  0  0  0  0  0  0
    7.2900   -1.7755   28.2391 H   0  0  0  0  0  0  0  0  0  0  0  0
   13.3855   -0.5567   19.7950 H   0  0  0  0  0  0  0  0  0  0  0  0
   14.8271   -0.8531   20.7977 H   0  0  0  0  0  0  0  0  0  0  0  0
   13.8000   -2.2056   20.3252 H   0  0  0  0  0  0  0  0  0  0  0  0
    7.3228   -1.1642   23.3575 H   0  0  0  0  0  0  0  0  0  0  0  0
  1  5  2  0  0  0  0
  1  7  1  0  0  0  0
  1 28  1  0  0  0  0
  2  8  2  0  0  0  0
  2  9  1  0  0  0  0
  2 29  1  0  0  0  0
  3  8  1  0  0  0  0
  3 11  2  0  0  0  0
  3 30  1  0  0  0  0
  4  9  2  0  0  0  0
  4 11  1  0  0  0  0
  4 31  1  0  0  0  0
  5 21  1  0  0  0  0
  5 32  1  0  0  0  0
  6 10  1  0  0  0  0
  6 21  2  0  0  0  0
  6 33  1  0  0  0  0
  7 10  2  0  0  0  0
  7 19  1  0  0  0  0
  8 20  1  0  0  0  0
  9 22  1  0  0  0  0
 10 23  1  0  0  0  0
 11 27  1  0  0  0  0
 12 22  1  0  0  0  0
 12 23  1  0  0  0  0
 12 25  2  0  0  0  0
 13 14  2  0  0  0  0
 13 34  1  0  0  0  0
 13 35  1  0  0  0  0
 14 15  1  0  0  0  0
 14 36  1  0  0  0  0
 15 24  1  0  0  0  0
 15 26  2  0  0  0  0
 16 18  1  0  0  0  0
 16 22  1  0  0  0  0
 16 37  1  0  0  0  0
 16 38  1  0  0  0  0
 17 18  1  0  0  0  0
 17 23  1  0  0  0  0
 17 39  1  0  0  0  0
 17 40  1  0  0  0  0
 18 24  1  0  0  0  0
 18 41  1  6  0  0  0
 19 42  1  0  0  0  0
 19 43  1  0  0  0  0
 19 44  1  0  0  0  0
 20 45  1  0  0  0  0
 20 46  1  0  0  0  0
 20 47  1  0  0  0  0
 24 48  1  0  0  0  0
M  END
>  <Chemgauss4 Score>
-5.16877365112305

>  <Number of Confs>
176

$$$$
