CHR-SOS-1f3-3
 OpenBabel03242009303D

 52 54  0  0  0  0  0  0  0  0999 V2000
    8.5215   -2.5106   24.6340 C   0  0  0  0  0  0  0  0  0  0  0  0
   10.5186   -3.8580   24.8157 C   0  0  0  0  0  0  0  0  0  0  0  0
    7.9293   -3.2502   25.6576 C   0  0  0  0  0  0  0  0  0  0  0  0
    9.9265   -4.5976   25.8394 C   0  0  0  0  0  0  0  0  0  0  0  0
    5.0381    1.6027   19.1126 C   0  0  0  0  0  0  0  0  0  0  0  0
    5.5552    1.0100   17.9720 C   0  0  0  0  0  0  0  0  0  0  0  0
    7.3704    0.1866   19.1144 C   0  0  0  0  0  0  0  0  0  0  0  0
    5.7491    1.4610   20.2991 C   0  0  0  0  0  0  0  0  0  0  0  0
    6.9385    0.7410   20.3086 C   0  0  0  0  0  0  0  0  0  0  0  0
    9.8161   -2.8145   24.2129 C   0  0  0  0  0  0  0  0  0  0  0  0
    8.6318   -4.2936   26.2604 C   0  0  0  0  0  0  0  0  0  0  0  0
    8.9013   -0.1251   21.6420 C   0  0  0  0  0  0  0  0  0  0  0  0
   13.2397   -0.3496   24.6553 C   0  0  0  0  0  0  0  0  0  0  0  0
   12.0804   -0.9176   25.4672 C   0  0  0  0  0  0  0  0  0  0  0  0
   13.0885   -0.6502   23.1678 C   0  0  0  0  0  0  0  0  0  0  0  0
   10.7290   -0.4303   24.9402 C   0  0  0  0  0  0  0  0  0  0  0  0
   11.7433   -0.1625   22.6255 C   0  0  0  0  0  0  0  0  0  0  0  0
   10.5505   -0.6885   23.4369 C   0  0  0  0  0  0  0  0  0  0  0  0
    5.2150    2.0902   21.5439 C   0  0  0  0  0  0  0  0  0  0  0  0
    6.7071    0.3031   17.9422 N   0  0  0  0  0  0  0  0  0  0  0  0
    6.3653   -4.4578   27.6535 N   0  0  0  0  0  0  0  0  0  0  0  0
    7.6974    0.5684   21.4896 N   0  0  0  0  0  0  0  0  0  0  0  0
    9.3330   -0.0630   22.9716 N   0  0  0  0  0  0  0  0  0  0  0  0
    9.5225   -0.7163   20.7622 O   0  0  0  0  0  0  0  0  0  0  0  0
    7.6999   -6.5848   27.0701 O   0  0  0  0  0  0  0  0  0  0  0  0
    8.6264   -4.9766   28.7739 O   0  0  0  0  0  0  0  0  0  0  0  0
   10.3975   -2.0885   23.2087 O   0  0  0  0  0  0  0  0  0  0  0  0
    7.8902   -5.2202   27.5414 S   0  0  0  0  0  0  0  0  0  0  0  0
    7.9696   -1.6983   24.1687 H   0  0  0  0  0  0  0  0  0  0  0  0
   11.5273   -4.0995   24.4920 H   0  0  0  0  0  0  0  0  0  0  0  0
    6.9203   -3.0049   25.9777 H   0  0  0  0  0  0  0  0  0  0  0  0
   10.4824   -5.4087   26.3019 H   0  0  0  0  0  0  0  0  0  0  0  0
    4.1073    2.1581   19.0714 H   0  0  0  0  0  0  0  0  0  0  0  0
    5.0389    1.0913   17.0211 H   0  0  0  0  0  0  0  0  0  0  0  0
    8.2910   -0.3867   19.0578 H   0  0  0  0  0  0  0  0  0  0  0  0
   13.3033    0.7330   24.8087 H   0  0  0  0  0  0  0  0  0  0  0  0
   14.1811   -0.7794   25.0181 H   0  0  0  0  0  0  0  0  0  0  0  0
   12.1110   -2.0131   25.4348 H   0  0  0  0  0  0  0  0  0  0  0  0
   12.1927   -0.6301   26.5198 H   0  0  0  0  0  0  0  0  0  0  0  0
   13.9088   -0.1811   22.6111 H   0  0  0  0  0  0  0  0  0  0  0  0
   13.1763   -1.7307   23.0021 H   0  0  0  0  0  0  0  0  0  0  0  0
    9.9227   -0.9329   25.4924 H   0  0  0  0  0  0  0  0  0  0  0  0
   10.6019    0.6377   25.1606 H   0  0  0  0  0  0  0  0  0  0  0  0
   11.7272    0.9346   22.5933 H   0  0  0  0  0  0  0  0  0  0  0  0
   11.6376   -0.4801   21.5790 H   0  0  0  0  0  0  0  0  0  0  0  0
    4.5564    1.3902   22.0709 H   0  0  0  0  0  0  0  0  0  0  0  0
    6.0275    2.3825   22.2203 H   0  0  0  0  0  0  0  0  0  0  0  0
    4.6467    3.0004   21.3154 H   0  0  0  0  0  0  0  0  0  0  0  0
    5.5433   -4.9722   27.3143 H   0  0  0  0  0  0  0  0  0  0  0  0
    6.1783   -3.8730   28.4771 H   0  0  0  0  0  0  0  0  0  0  0  0
    7.3172    1.0039   22.3263 H   0  0  0  0  0  0  0  0  0  0  0  0
    8.7639    0.4458   23.6417 H   0  0  0  0  0  0  0  0  0  0  0  0
  1  3  2  0  0  0  0
  1 10  1  0  0  0  0
  1 29  1  0  0  0  0
  2  4  1  0  0  0  0
  2 10  2  0  0  0  0
  2 30  1  0  0  0  0
  3 11  1  0  0  0  0
  3 31  1  0  0  0  0
  4 11  2  0  0  0  0
  4 32  1  0  0  0  0
  5  6  2  0  0  0  0
  5  8  1  0  0  0  0
  5 33  1  0  0  0  0
  6 20  1  0  0  0  0
  6 34  1  0  0  0  0
  7  9  1  0  0  0  0
  7 20  2  0  0  0  0
  7 35  1  0  0  0  0
  8  9  2  0  0  0  0
  8 19  1  0  0  0  0
  9 22  1  0  0  0  0
 10 27  1  0  0  0  0
 11 28  1  0  0  0  0
 12 22  1  0  0  0  0
 12 23  1  0  0  0  0
 12 24  2  0  0  0  0
 13 14  1  0  0  0  0
 13 15  1  0  0  0  0
 13 36  1  0  0  0  0
 13 37  1  0  0  0  0
 14 16  1  0  0  0  0
 14 38  1  0  0  0  0
 14 39  1  0  0  0  0
 15 17  1  0  0  0  0
 15 40  1  0  0  0  0
 15 41  1  0  0  0  0
 16 18  1  0  0  0  0
 16 42  1  0  0  0  0
 16 43  1  0  0  0  0
 17 18  1  0  0  0  0
 17 44  1  0  0  0  0
 17 45  1  0  0  0  0
 18 23  1  0  0  0  0
 18 27  1  0  0  0  0
 19 46  1  0  0  0  0
 19 47  1  0  0  0  0
 19 48  1  0  0  0  0
 21 28  1  0  0  0  0
 21 49  1  0  0  0  0
 21 50  1  0  0  0  0
 22 51  1  0  0  0  0
 23 52  1  0  0  0  0
 25 28  2  0  0  0  0
 26 28  2  0  0  0  0
M  END
>  <Chemgauss4 Score>
-7.54667186737061

>  <Number of Confs>
82

$$$$
