DAR-DIA-842-12
 OpenBabel03242009303D

 28 29  0  0  0  0  0  0  0  0999 V2000
   12.2927   -0.9222   22.4353 C   0  0  0  0  0  0  0  0  0  0  0  0
   11.3962   -1.9451   22.7241 C   0  0  0  0  0  0  0  0  0  0  0  0
    9.1926   -5.1385   27.7308 C   0  0  0  0  0  0  0  0  0  0  0  0
    9.4994   -5.0232   26.3442 C   0  0  0  0  0  0  0  0  0  0  0  0
   12.1587    0.2717   23.1254 C   0  0  0  0  0  0  0  0  0  0  0  0
   10.3577   -0.5148   24.3153 C   0  0  0  0  0  0  0  0  0  0  0  0
   10.4071   -1.7455   23.6808 C   0  0  0  0  0  0  0  0  0  0  0  0
    7.8345   -5.1496   27.9611 C   0  0  0  0  0  0  0  0  0  0  0  0
    8.3639   -4.9509   25.5673 C   0  0  0  0  0  0  0  0  0  0  0  0
    9.4059   -4.0450   23.4468 C   0  0  0  0  0  0  0  0  0  0  0  0
    7.1206   -5.2546   29.2522 C   0  0  0  0  0  0  0  0  0  0  0  0
    8.2589   -4.8249   24.0700 C   0  0  0  0  0  0  0  0  0  0  0  0
   11.2109    0.5026   24.0614 N   0  0  0  0  0  0  0  0  0  0  0  0
    9.4950   -2.7513   23.9911 N   0  0  0  0  0  0  0  0  0  0  0  0
   10.1316   -4.5253   22.5820 O   0  0  0  0  0  0  0  0  0  0  0  0
    6.9356   -5.0217   26.5092 S   0  0  0  0  0  0  0  0  0  0  0  0
   13.0717   -1.0555   21.6933 H   0  0  0  0  0  0  0  0  0  0  0  0
   11.4773   -2.8927   22.1983 H   0  0  0  0  0  0  0  0  0  0  0  0
    9.9341   -5.2106   28.5164 H   0  0  0  0  0  0  0  0  0  0  0  0
   10.5038   -4.9967   25.9410 H   0  0  0  0  0  0  0  0  0  0  0  0
   12.8325    1.1008   22.9361 H   0  0  0  0  0  0  0  0  0  0  0  0
    9.6084   -0.2992   25.0713 H   0  0  0  0  0  0  0  0  0  0  0  0
    6.9365   -4.2580   29.6831 H   0  0  0  0  0  0  0  0  0  0  0  0
    6.1473   -5.7604   29.1435 H   0  0  0  0  0  0  0  0  0  0  0  0
    7.6911   -5.8417   29.9904 H   0  0  0  0  0  0  0  0  0  0  0  0
    8.2266   -5.8243   23.6177 H   0  0  0  0  0  0  0  0  0  0  0  0
    7.3138   -4.3321   23.8087 H   0  0  0  0  0  0  0  0  0  0  0  0
    8.7981   -2.5182   24.7096 H   0  0  0  0  0  0  0  0  0  0  0  0
  1  2  2  0  0  0  0
  1  5  1  0  0  0  0
  1 17  1  0  0  0  0
  2  7  1  0  0  0  0
  2 18  1  0  0  0  0
  3  4  1  0  0  0  0
  3  8  2  0  0  0  0
  3 19  1  0  0  0  0
  4  9  2  0  0  0  0
  4 20  1  0  0  0  0
  5 13  2  0  0  0  0
  5 21  1  0  0  0  0
  6  7  2  0  0  0  0
  6 13  1  0  0  0  0
  6 22  1  0  0  0  0
  7 14  1  0  0  0  0
  8 11  1  0  0  0  0
  8 16  1  0  0  0  0
  9 12  1  0  0  0  0
  9 16  1  0  0  0  0
 10 12  1  0  0  0  0
 10 14  1  0  0  0  0
 10 15  2  0  0  0  0
 11 23  1  0  0  0  0
 11 24  1  0  0  0  0
 11 25  1  0  0  0  0
 12 26  1  0  0  0  0
 12 27  1  0  0  0  0
 14 28  1  0  0  0  0
M  END
>  <Chemgauss4 Score>
-4.52171087265015

>  <Number of Confs>
76

$$$$
