CHR-SOS-54d-6
 OpenBabel03242009303D

 43 45  0  0  0  0  0  0  0  0999 V2000
   10.9783   -2.5008   23.5711 C   0  0  0  0  0  0  0  0  0  0  0  0
   10.1514   -2.9072   24.3416 C   0  0  0  0  0  0  0  0  0  0  0  0
    6.3356   -0.8752   19.9897 C   0  0  0  0  0  0  0  0  0  0  0  0
    6.6143   -1.3554   21.2645 C   0  0  0  0  0  0  0  0  0  0  0  0
    7.1164    0.1602   19.5017 C   0  0  0  0  0  0  0  0  0  0  0  0
    8.3726    0.2381   21.4236 C   0  0  0  0  0  0  0  0  0  0  0  0
   13.3108   -2.2804   22.6462 C   0  0  0  0  0  0  0  0  0  0  0  0
   12.7446   -0.9422   20.9894 C   0  0  0  0  0  0  0  0  0  0  0  0
   11.9615   -2.0161   22.6518 C   0  0  0  0  0  0  0  0  0  0  0  0
    7.6506   -0.7935   22.0018 C   0  0  0  0  0  0  0  0  0  0  0  0
    7.3267   -2.2807   24.0081 C   0  0  0  0  0  0  0  0  0  0  0  0
    8.3343   -5.6154   27.2216 C   0  0  0  0  0  0  0  0  0  0  0  0
    7.6628   -5.4929   25.8584 C   0  0  0  0  0  0  0  0  0  0  0  0
    8.8080   -4.2618   27.7387 C   0  0  0  0  0  0  0  0  0  0  0  0
    8.5704   -4.7971   24.8415 C   0  0  0  0  0  0  0  0  0  0  0  0
    9.7216   -3.5600   26.7313 C   0  0  0  0  0  0  0  0  0  0  0  0
    9.0916   -3.4274   25.3278 C   0  0  0  0  0  0  0  0  0  0  0  0
    7.9803   -2.4477   25.3633 C   0  0  0  0  0  0  0  0  0  0  0  0
    8.1313    0.7313   20.1882 N   0  0  0  0  0  0  0  0  0  0  0  0
   11.6153   -1.1828   21.6178 N   0  0  0  0  0  0  0  0  0  0  0  0
   13.7989   -1.5859   21.5753 N   0  0  0  0  0  0  0  0  0  0  0  0
    7.9578   -1.2607   23.3018 N   0  0  0  0  0  0  0  0  0  0  0  0
    6.3825   -2.9705   23.6377 O   0  0  0  0  0  0  0  0  0  0  0  0
    5.5325   -1.2982   19.3970 H   0  0  0  0  0  0  0  0  0  0  0  0
    6.0183   -2.1671   21.6733 H   0  0  0  0  0  0  0  0  0  0  0  0
    6.9387    0.5708   18.5132 H   0  0  0  0  0  0  0  0  0  0  0  0
    9.1933    0.7168   21.9496 H   0  0  0  0  0  0  0  0  0  0  0  0
   13.9508   -2.8771   23.2809 H   0  0  0  0  0  0  0  0  0  0  0  0
   12.8657   -0.3189   20.1151 H   0  0  0  0  0  0  0  0  0  0  0  0
    7.6282   -6.0531   27.9382 H   0  0  0  0  0  0  0  0  0  0  0  0
    9.1852   -6.3024   27.1531 H   0  0  0  0  0  0  0  0  0  0  0  0
    7.3878   -6.4898   25.4930 H   0  0  0  0  0  0  0  0  0  0  0  0
    6.7292   -4.9278   25.9609 H   0  0  0  0  0  0  0  0  0  0  0  0
    7.9394   -3.6267   27.9478 H   0  0  0  0  0  0  0  0  0  0  0  0
    9.3354   -4.3959   28.6909 H   0  0  0  0  0  0  0  0  0  0  0  0
    9.4077   -5.4643   24.5976 H   0  0  0  0  0  0  0  0  0  0  0  0
    8.0008   -4.6611   23.9121 H   0  0  0  0  0  0  0  0  0  0  0  0
    9.9557   -2.5602   27.1213 H   0  0  0  0  0  0  0  0  0  0  0  0
   10.6742   -4.1032   26.6770 H   0  0  0  0  0  0  0  0  0  0  0  0
    8.3764   -1.4882   25.6945 H   0  0  0  0  0  0  0  0  0  0  0  0
    7.2384   -2.7927   26.0828 H   0  0  0  0  0  0  0  0  0  0  0  0
   14.7629   -1.5519   21.2718 H   0  0  0  0  0  0  0  0  0  0  0  0
    8.7326   -0.7874   23.7623 H   0  0  0  0  0  0  0  0  0  0  0  0
  1  2  3  0  0  0  0
  1  9  1  0  0  0  0
  2 17  1  0  0  0  0
  3  4  2  0  0  0  0
  3  5  1  0  0  0  0
  3 24  1  0  0  0  0
  4 10  1  0  0  0  0
  4 25  1  0  0  0  0
  5 19  2  0  0  0  0
  5 26  1  0  0  0  0
  6 10  2  0  0  0  0
  6 19  1  0  0  0  0
  6 27  1  0  0  0  0
  7  9  2  0  0  0  0
  7 21  1  0  0  0  0
  7 28  1  0  0  0  0
  8 20  2  0  0  0  0
  8 21  1  0  0  0  0
  8 29  1  0  0  0  0
  9 20  1  0  0  0  0
 10 22  1  0  0  0  0
 11 18  1  0  0  0  0
 11 22  1  0  0  0  0
 11 23  2  0  0  0  0
 12 13  1  0  0  0  0
 12 14  1  0  0  0  0
 12 30  1  0  0  0  0
 12 31  1  0  0  0  0
 13 15  1  0  0  0  0
 13 32  1  0  0  0  0
 13 33  1  0  0  0  0
 14 16  1  0  0  0  0
 14 34  1  0  0  0  0
 14 35  1  0  0  0  0
 15 17  1  0  0  0  0
 15 36  1  0  0  0  0
 15 37  1  0  0  0  0
 16 17  1  0  0  0  0
 16 38  1  0  0  0  0
 16 39  1  0  0  0  0
 17 18  1  0  0  0  0
 18 40  1  0  0  0  0
 18 41  1  0  0  0  0
 21 42  1  0  0  0  0
 22 43  1  0  0  0  0
M  END
>  <Chemgauss4 Score>
-5.27538347244263

>  <Number of Confs>
78

$$$$
