CHR-SOS-b30-2
 OpenBabel03242009303D

 45 47  0  0  0  0  0  0  0  0999 V2000
   10.0409   -2.4911   23.7362 C   0  0  0  0  0  0  0  0  0  0  0  0
    9.0476   -3.0452   24.1223 C   0  0  0  0  0  0  0  0  0  0  0  0
   12.9280   -0.1502   23.5221 C   0  0  0  0  0  0  0  0  0  0  0  0
    7.0238    1.4790   20.4719 C   0  0  0  0  0  0  0  0  0  0  0  0
   11.7766   -0.7722   23.9919 C   0  0  0  0  0  0  0  0  0  0  0  0
    6.9289    0.3971   21.3401 C   0  0  0  0  0  0  0  0  0  0  0  0
   13.4841   -0.6203   22.3433 C   0  0  0  0  0  0  0  0  0  0  0  0
    7.1950    1.2148   19.1226 C   0  0  0  0  0  0  0  0  0  0  0  0
   11.8566   -2.2251   22.1106 C   0  0  0  0  0  0  0  0  0  0  0  0
    7.1787   -1.0556   19.4737 C   0  0  0  0  0  0  0  0  0  0  0  0
   11.2243   -1.8303   23.2786 C   0  0  0  0  0  0  0  0  0  0  0  0
    7.0069   -0.8977   20.8395 C   0  0  0  0  0  0  0  0  0  0  0  0
    6.7419   -2.0176   23.0795 C   0  0  0  0  0  0  0  0  0  0  0  0
    8.5751   -5.1070   27.1454 C   0  0  0  0  0  0  0  0  0  0  0  0
    9.0234   -5.6562   25.7958 C   0  0  0  0  0  0  0  0  0  0  0  0
    8.3823   -3.5953   27.1013 C   0  0  0  0  0  0  0  0  0  0  0  0
    8.0642   -5.2518   24.6740 C   0  0  0  0  0  0  0  0  0  0  0  0
    7.4201   -3.1803   25.9860 C   0  0  0  0  0  0  0  0  0  0  0  0
    7.8224   -3.7285   24.5997 C   0  0  0  0  0  0  0  0  0  0  0  0
    6.6957   -3.4410   23.5925 C   0  0  0  0  0  0  0  0  0  0  0  0
   12.9764   -1.6454   21.6229 N   0  0  0  0  0  0  0  0  0  0  0  0
    7.2751   -0.0291   18.5992 N   0  0  0  0  0  0  0  0  0  0  0  0
    6.9139   -2.0188   21.6982 N   0  0  0  0  0  0  0  0  0  0  0  0
    6.6376   -1.0431   23.8171 O   0  0  0  0  0  0  0  0  0  0  0  0
   13.3761    0.6769   24.0606 H   0  0  0  0  0  0  0  0  0  0  0  0
    6.9656    2.4970   20.8400 H   0  0  0  0  0  0  0  0  0  0  0  0
   11.3212   -0.4221   24.9148 H   0  0  0  0  0  0  0  0  0  0  0  0
    6.7943    0.5742   22.4039 H   0  0  0  0  0  0  0  0  0  0  0  0
   14.3825   -0.1694   21.9354 H   0  0  0  0  0  0  0  0  0  0  0  0
    7.2754    2.0241   18.4045 H   0  0  0  0  0  0  0  0  0  0  0  0
   11.4756   -3.0441   21.5071 H   0  0  0  0  0  0  0  0  0  0  0  0
    7.2464   -2.0416   19.0235 H   0  0  0  0  0  0  0  0  0  0  0  0
    7.6333   -5.5865   27.4399 H   0  0  0  0  0  0  0  0  0  0  0  0
    9.3155   -5.3621   27.9118 H   0  0  0  0  0  0  0  0  0  0  0  0
   10.0348   -5.2969   25.5700 H   0  0  0  0  0  0  0  0  0  0  0  0
    9.0833   -6.7494   25.8483 H   0  0  0  0  0  0  0  0  0  0  0  0
    7.9941   -3.2486   28.0659 H   0  0  0  0  0  0  0  0  0  0  0  0
    9.3529   -3.1048   26.9589 H   0  0  0  0  0  0  0  0  0  0  0  0
    8.4554   -5.6275   23.7193 H   0  0  0  0  0  0  0  0  0  0  0  0
    7.1074   -5.7648   24.8412 H   0  0  0  0  0  0  0  0  0  0  0  0
    6.4177   -3.5469   26.2458 H   0  0  0  0  0  0  0  0  0  0  0  0
    7.3538   -2.0846   25.9634 H   0  0  0  0  0  0  0  0  0  0  0  0
    5.7396   -3.6173   24.0844 H   0  0  0  0  0  0  0  0  0  0  0  0
    6.7964   -4.1308   22.7552 H   0  0  0  0  0  0  0  0  0  0  0  0
    6.9820   -2.9249   21.2394 H   0  0  0  0  0  0  0  0  0  0  0  0
  1  2  3  0  0  0  0
  1 11  1  0  0  0  0
  2 19  1  0  0  0  0
  3  5  2  0  0  0  0
  3  7  1  0  0  0  0
  3 25  1  0  0  0  0
  4  6  2  0  0  0  0
  4  8  1  0  0  0  0
  4 26  1  0  0  0  0
  5 11  1  0  0  0  0
  5 27  1  0  0  0  0
  6 12  1  0  0  0  0
  6 28  1  0  0  0  0
  7 21  2  0  0  0  0
  7 29  1  0  0  0  0
  8 22  2  0  0  0  0
  8 30  1  0  0  0  0
  9 11  2  0  0  0  0
  9 21  1  0  0  0  0
  9 31  1  0  0  0  0
 10 12  2  0  0  0  0
 10 22  1  0  0  0  0
 10 32  1  0  0  0  0
 12 23  1  0  0  0  0
 13 20  1  0  0  0  0
 13 23  1  0  0  0  0
 13 24  2  0  0  0  0
 14 15  1  0  0  0  0
 14 16  1  0  0  0  0
 14 33  1  0  0  0  0
 14 34  1  0  0  0  0
 15 17  1  0  0  0  0
 15 35  1  0  0  0  0
 15 36  1  0  0  0  0
 16 18  1  0  0  0  0
 16 37  1  0  0  0  0
 16 38  1  0  0  0  0
 17 19  1  0  0  0  0
 17 39  1  0  0  0  0
 17 40  1  0  0  0  0
 18 19  1  0  0  0  0
 18 41  1  0  0  0  0
 18 42  1  0  0  0  0
 19 20  1  0  0  0  0
 20 43  1  0  0  0  0
 20 44  1  0  0  0  0
 23 45  1  0  0  0  0
M  END
>  <Chemgauss4 Score>
-4.90041875839233

>  <Number of Confs>
75

$$$$
