CHR-SOS-709-7
 OpenBabel03242009303D

 27 28  0  0  0  0  0  0  0  0999 V2000
   12.7734   -0.0148   23.1945 C   0  0  0  0  0  0  0  0  0  0  0  0
   12.1660    0.0235   24.4495 C   0  0  0  0  0  0  0  0  0  0  0  0
   12.3991   -0.9880   22.2679 C   0  0  0  0  0  0  0  0  0  0  0  0
   11.1844   -0.9114   24.7781 C   0  0  0  0  0  0  0  0  0  0  0  0
   11.4175   -1.9229   22.5964 C   0  0  0  0  0  0  0  0  0  0  0  0
    7.3782   -6.1329   26.4226 C   0  0  0  0  0  0  0  0  0  0  0  0
    6.3455   -6.1926   25.4869 C   0  0  0  0  0  0  0  0  0  0  0  0
    7.1263   -4.1331   24.4938 C   0  0  0  0  0  0  0  0  0  0  0  0
    8.1589   -4.0734   25.4296 C   0  0  0  0  0  0  0  0  0  0  0  0
   10.8101   -1.8846   23.8515 C   0  0  0  0  0  0  0  0  0  0  0  0
    8.2849   -5.0733   26.3940 C   0  0  0  0  0  0  0  0  0  0  0  0
    6.2195   -5.1928   24.5225 C   0  0  0  0  0  0  0  0  0  0  0  0
    9.0936   -2.9575   25.3839 C   0  0  0  0  0  0  0  0  0  0  0  0
    9.8123   -2.8347   24.1857 N   0  0  0  0  0  0  0  0  0  0  0  0
    9.2539   -2.2048   26.3534 O   0  0  0  0  0  0  0  0  0  0  0  0
    9.2858   -5.0316   27.3181 O   0  0  0  0  0  0  0  0  0  0  0  0
    4.9466   -5.2675   23.3667 Cl  0  0  0  0  0  0  0  0  0  0  0  0
   13.5372    0.7136   22.9380 H   0  0  0  0  0  0  0  0  0  0  0  0
   12.4565    0.7816   25.1708 H   0  0  0  0  0  0  0  0  0  0  0  0
   12.8716   -1.0169   21.2903 H   0  0  0  0  0  0  0  0  0  0  0  0
   10.7179   -0.8717   25.7592 H   0  0  0  0  0  0  0  0  0  0  0  0
   11.1338   -2.6768   21.8662 H   0  0  0  0  0  0  0  0  0  0  0  0
    7.4709   -6.9144   27.1719 H   0  0  0  0  0  0  0  0  0  0  0  0
    5.6472   -7.0248   25.5205 H   0  0  0  0  0  0  0  0  0  0  0  0
    7.0294   -3.3517   23.7430 H   0  0  0  0  0  0  0  0  0  0  0  0
    9.5888   -3.5150   23.4634 H   0  0  0  0  0  0  0  0  0  0  0  0
    9.8364   -4.2452   27.1796 H   0  0  0  0  0  0  0  0  0  0  0  0
  1  2  1  0  0  0  0
  1  3  2  0  0  0  0
  1 18  1  0  0  0  0
  2  4  2  0  0  0  0
  2 19  1  0  0  0  0
  3  5  1  0  0  0  0
  3 20  1  0  0  0  0
  4 10  1  0  0  0  0
  4 21  1  0  0  0  0
  5 10  2  0  0  0  0
  5 22  1  0  0  0  0
  6  7  2  0  0  0  0
  6 11  1  0  0  0  0
  6 23  1  0  0  0  0
  7 12  1  0  0  0  0
  7 24  1  0  0  0  0
  8  9  1  0  0  0  0
  8 12  2  0  0  0  0
  8 25  1  0  0  0  0
  9 11  2  0  0  0  0
  9 13  1  0  0  0  0
 10 14  1  0  0  0  0
 11 16  1  0  0  0  0
 12 17  1  0  0  0  0
 13 14  1  0  0  0  0
 13 15  2  0  0  0  0
 14 26  1  0  0  0  0
 16 27  1  0  0  0  0
M  END
>  <Chemgauss4 Score>
-4.57402324676514

>  <Number of Confs>
5

$$$$
