AVI-UNI-cf0-1
 OpenBabel03242009303D

 44 48  0  0  1  0  0  0  0  0999 V2000
    7.3171   -6.2933   21.5242 C   0  0  0  0  0  0  0  0  0  0  0  0
    7.9827   -5.2278   22.1273 C   0  0  0  0  0  0  0  0  0  0  0  0
    5.9977   -6.1193   21.1274 C   0  0  0  0  0  0  0  0  0  0  0  0
    6.3902   -2.0160   22.6954 C   0  0  0  0  0  0  0  0  0  0  0  0
    7.2742   -4.0294   22.2997 C   0  0  0  0  0  0  0  0  0  0  0  0
    7.5455   -2.7478   22.8412 C   0  0  0  0  0  0  0  0  0  0  0  0
    5.9538   -3.9901   21.8555 C   0  0  0  0  0  0  0  0  0  0  0  0
   10.5891   -2.2394   25.0665 C   0  0  0  0  0  0  0  0  0  0  0  0
    7.5632   -3.9859   25.7458 C   0  0  0  0  0  0  0  0  0  0  0  0
    8.7967   -2.2484   23.4494 C   0  0  0  0  0  0  0  0  0  0  0  0
    9.3576   -2.8136   24.5456 C   0  0  0  0  0  0  0  0  0  0  0  0
    8.7682   -3.9632   25.2157 C   0  0  0  0  0  0  0  0  0  0  0  0
   11.1842   -1.1754   24.5081 C   0  0  0  0  0  0  0  0  0  0  0  0
    7.5125   -5.3468   26.2587 C   0  0  0  0  0  0  0  0  0  0  0  0
    9.4617   -1.0622   22.7879 C   0  0  0  0  0  0  0  0  0  0  0  0
   12.4450   -0.5994   25.1058 C   0  0  0  0  0  0  0  0  0  0  0  0
    8.7886   -6.0662   25.9653 C   0  0  0  0  0  0  0  0  0  0  0  0
   11.3414    0.5071   22.6983 C   0  0  0  0  0  0  0  0  0  0  0  0
   12.5095    1.1248   23.4620 C   0  0  0  0  0  0  0  0  0  0  0  0
   14.0577   -0.7485   23.2908 C   0  0  0  0  0  0  0  0  0  0  0  0
    5.2670   -4.9892   21.2687 N   0  0  0  0  0  0  0  0  0  0  0  0
   10.6385   -0.5844   23.3783 N   0  0  0  0  0  0  0  0  0  0  0  0
   13.3116    0.1366   24.1820 N   0  0  0  0  0  0  0  0  0  0  0  0
    6.5511   -5.8176   26.8446 O   0  0  0  0  0  0  0  0  0  0  0  0
    8.9601   -0.5764   21.7719 O   0  0  0  0  0  0  0  0  0  0  0  0
    5.4207   -2.7581   22.1003 O   0  0  0  0  0  0  0  0  0  0  0  0
    9.5711   -5.0820   25.2721 O   0  0  0  0  0  0  0  0  0  0  0  0
    7.8207   -7.2414   21.3682 H   0  0  0  0  0  0  0  0  0  0  0  0
    9.0140   -5.3316   22.4484 H   0  0  0  0  0  0  0  0  0  0  0  0
    5.4651   -6.9412   20.6562 H   0  0  0  0  0  0  0  0  0  0  0  0
    6.1060   -1.0046   22.9500 H   0  0  0  0  0  0  0  0  0  0  0  0
   11.0348   -2.7183   25.9346 H   0  0  0  0  0  0  0  0  0  0  0  0
    6.7977   -3.2346   25.8064 H   0  0  0  0  0  0  0  0  0  0  0  0
   12.1684    0.0775   25.9377 H   0  0  0  0  0  0  0  0  0  0  0  0
   13.0082   -1.4332   25.5723 H   0  0  0  0  0  0  0  0  0  0  0  0
    9.2995   -6.3530   26.8874 H   0  0  0  0  0  0  0  0  0  0  0  0
    8.6157   -6.9216   25.3080 H   0  0  0  0  0  0  0  0  0  0  0  0
   10.5859    1.2780   22.4930 H   0  0  0  0  0  0  0  0  0  0  0  0
   11.6900    0.1471   21.7219 H   0  0  0  0  0  0  0  0  0  0  0  0
   13.1425    1.7171   22.7607 H   0  0  0  0  0  0  0  0  0  0  0  0
   12.0947    1.8720   24.1746 H   0  0  0  0  0  0  0  0  0  0  0  0
   14.6899   -0.1471   22.6209 H   0  0  0  0  0  0  0  0  0  0  0  0
   14.6917   -1.4203   23.8879 H   0  0  0  0  0  0  0  0  0  0  0  0
   13.3532   -1.3448   22.6924 H   0  0  0  0  0  0  0  0  0  0  0  0
  1  2  2  0  0  0  0
  1  3  1  0  0  0  0
  1 28  1  0  0  0  0
  2  5  1  0  0  0  0
  2 29  1  0  0  0  0
  3 21  2  0  0  0  0
  3 30  1  0  0  0  0
  4  6  2  0  0  0  0
  4 26  1  0  0  0  0
  4 31  1  0  0  0  0
  5  6  1  0  0  0  0
  5  7  2  0  0  0  0
  6 10  1  0  0  0  0
  7 21  1  0  0  0  0
  7 26  1  0  0  0  0
  8 11  1  0  0  0  0
  8 13  2  0  0  0  0
  8 32  1  0  0  0  0
  9 12  2  0  0  0  0
  9 14  1  0  0  0  0
  9 33  1  0  0  0  0
 10 11  2  0  0  0  0
 10 15  1  0  0  0  0
 11 12  1  0  0  0  0
 12 27  1  0  0  0  0
 13 16  1  0  0  0  0
 13 22  1  0  0  0  0
 14 17  1  0  0  0  0
 14 24  2  0  0  0  0
 15 22  1  0  0  0  0
 15 25  2  0  0  0  0
 16 23  1  0  0  0  0
 16 34  1  0  0  0  0
 16 35  1  0  0  0  0
 17 27  1  0  0  0  0
 17 36  1  0  0  0  0
 17 37  1  0  0  0  0
 18 19  1  0  0  0  0
 18 22  1  0  0  0  0
 18 38  1  0  0  0  0
 18 39  1  0  0  0  0
 19 23  1  0  0  0  0
 19 40  1  0  0  0  0
 19 41  1  0  0  0  0
 20 23  1  0  0  0  0
 20 42  1  0  0  0  0
 20 43  1  0  0  0  0
 20 44  1  0  0  0  0
M  END
>  <Chemgauss4 Score>
-5.21598482131958

>  <Number of Confs>
27

$$$$
