SAL-INS-1c7-4
 OpenBabel03242009303D

 47 50  0  0  1  0  0  0  0  0999 V2000
   10.2993   -4.3202   25.7187 C   0  0  0  0  0  0  0  0  0  0  0  0
   10.7551   -3.7998   24.5083 C   0  0  0  0  0  0  0  0  0  0  0  0
    8.6329   -2.5794   25.8356 C   0  0  0  0  0  0  0  0  0  0  0  0
   12.3163   -0.2875   23.4917 C   0  0  0  0  0  0  0  0  0  0  0  0
    5.4591   -5.6577   26.4334 C   0  0  0  0  0  0  0  0  0  0  0  0
   14.0666   -1.0207   22.3713 C   0  0  0  0  0  0  0  0  0  0  0  0
    6.4970   -5.8280   24.4969 C   0  0  0  0  0  0  0  0  0  0  0  0
    9.2376   -3.7113   26.3811 C   0  0  0  0  0  0  0  0  0  0  0  0
   10.1523   -2.6622   23.9471 C   0  0  0  0  0  0  0  0  0  0  0  0
    9.0855   -2.0408   24.6215 C   0  0  0  0  0  0  0  0  0  0  0  0
   12.0052   -1.3983   22.7435 C   0  0  0  0  0  0  0  0  0  0  0  0
    6.7562   -5.2094   26.5169 C   0  0  0  0  0  0  0  0  0  0  0  0
    8.7591   -4.2553   27.6421 C   0  0  0  0  0  0  0  0  0  0  0  0
    8.9945    1.0949   22.5143 C   0  0  0  0  0  0  0  0  0  0  0  0
    8.4000   -0.8144   24.0704 C   0  0  0  0  0  0  0  0  0  0  0  0
    9.6108   -1.2281   21.9432 C   0  0  0  0  0  0  0  0  0  0  0  0
   10.6652   -2.1123   22.6287 C   0  0  2  0  0  0  0  0  0  0  0  0
    6.6503   -4.6000   28.9666 C   0  0  0  0  0  0  0  0  0  0  0  0
    8.2509    2.0142   23.4511 C   0  0  0  0  0  0  0  0  0  0  0  0
   13.0991   -1.8500   22.0485 N   0  0  0  0  0  0  0  0  0  0  0  0
    7.3969   -5.3178   25.3080 N   0  0  0  0  0  0  0  0  0  0  0  0
   13.6403   -0.0580   23.2434 N   0  0  0  0  0  0  0  0  0  0  0  0
    5.3076   -6.0503   25.1334 N   0  0  0  0  0  0  0  0  0  0  0  0
    9.0341   -0.2552   22.8700 N   0  0  0  0  0  0  0  0  0  0  0  0
    7.4012   -4.6851   27.7048 N   0  0  0  0  0  0  0  0  0  0  0  0
    9.5146   -4.3190   28.6218 O   0  0  0  0  0  0  0  0  0  0  0  0
    9.5279    1.5626   21.5053 O   0  0  0  0  0  0  0  0  0  0  0  0
    7.6338    3.3390   22.4708 Cl  0  0  0  0  0  0  0  0  0  0  0  0
   10.7792   -5.2027   26.1341 H   0  0  0  0  0  0  0  0  0  0  0  0
   11.5825   -4.2899   24.0007 H   0  0  0  0  0  0  0  0  0  0  0  0
    7.8031   -2.1058   26.3568 H   0  0  0  0  0  0  0  0  0  0  0  0
   11.7399    0.3403   24.1560 H   0  0  0  0  0  0  0  0  0  0  0  0
    4.6550   -5.7326   27.1518 H   0  0  0  0  0  0  0  0  0  0  0  0
   15.0857   -1.0609   22.0133 H   0  0  0  0  0  0  0  0  0  0  0  0
    6.6397   -6.0558   23.4502 H   0  0  0  0  0  0  0  0  0  0  0  0
    7.3719   -1.0727   23.7896 H   0  0  0  0  0  0  0  0  0  0  0  0
    8.3608   -0.0545   24.8559 H   0  0  0  0  0  0  0  0  0  0  0  0
   10.0452   -0.7259   21.0716 H   0  0  0  0  0  0  0  0  0  0  0  0
    8.7795   -1.8454   21.5788 H   0  0  0  0  0  0  0  0  0  0  0  0
   10.8238   -2.9924   21.9057 H   0  0  0  0  0  0  0  0  0  0  0  0
    6.7770   -5.5345   29.5330 H   0  0  0  0  0  0  0  0  0  0  0  0
    7.0289   -3.7563   29.5623 H   0  0  0  0  0  0  0  0  0  0  0  0
    5.5833   -4.4454   28.7485 H   0  0  0  0  0  0  0  0  0  0  0  0
    8.9431    2.3917   24.1945 H   0  0  0  0  0  0  0  0  0  0  0  0
    7.4294    1.4679   23.8993 H   0  0  0  0  0  0  0  0  0  0  0  0
   14.2018    0.6877   23.6325 H   0  0  0  0  0  0  0  0  0  0  0  0
    4.4699   -6.4361   24.7186 H   0  0  0  0  0  0  0  0  0  0  0  0
  1  2  2  0  0  0  0
  1  8  1  0  0  0  0
  1 29  1  0  0  0  0
  2  9  1  0  0  0  0
  2 30  1  0  0  0  0
  3  8  2  0  0  0  0
  3 10  1  0  0  0  0
  3 31  1  0  0  0  0
  4 11  2  0  0  0  0
  4 22  1  0  0  0  0
  4 32  1  0  0  0  0
  5 12  2  0  0  0  0
  5 23  1  0  0  0  0
  5 33  1  0  0  0  0
  6 20  2  0  0  0  0
  6 22  1  0  0  0  0
  6 34  1  0  0  0  0
  7 21  2  0  0  0  0
  7 23  1  0  0  0  0
  7 35  1  0  0  0  0
  8 13  1  0  0  0  0
  9 10  2  0  0  0  0
  9 17  1  0  0  0  0
 10 15  1  0  0  0  0
 11 17  1  0  0  0  0
 11 20  1  0  0  0  0
 12 21  1  0  0  0  0
 12 25  1  0  0  0  0
 13 25  1  0  0  0  0
 13 26  2  0  0  0  0
 14 19  1  0  0  0  0
 14 24  1  0  0  0  0
 14 27  2  0  0  0  0
 15 24  1  0  0  0  0
 15 36  1  0  0  0  0
 15 37  1  0  0  0  0
 16 17  1  0  0  0  0
 16 24  1  0  0  0  0
 16 38  1  0  0  0  0
 16 39  1  0  0  0  0
 17 40  1  6  0  0  0
 18 25  1  0  0  0  0
 18 41  1  0  0  0  0
 18 42  1  0  0  0  0
 18 43  1  0  0  0  0
 19 28  1  0  0  0  0
 19 44  1  0  0  0  0
 19 45  1  0  0  0  0
 22 46  1  0  0  0  0
 23 47  1  0  0  0  0
M  END
>  <Chemgauss4 Score>
-6.83954048156738

>  <Number of Confs>
200

$$$$
