TRY-UNI-1fd-7
 OpenBabel03242009303D

 35 37  0  0  0  0  0  0  0  0999 V2000
   10.5061   -3.3743   26.9089 C   0  0  0  0  0  0  0  0  0  0  0  0
    9.7174   -4.2125   26.1229 C   0  0  0  0  0  0  0  0  0  0  0  0
    8.8298   -1.1549   23.7279 C   0  0  0  0  0  0  0  0  0  0  0  0
   10.3757   -2.8168   22.8999 C   0  0  0  0  0  0  0  0  0  0  0  0
    9.9012   -0.3750   24.1631 C   0  0  0  0  0  0  0  0  0  0  0  0
   11.4472   -2.0368   23.3351 C   0  0  0  0  0  0  0  0  0  0  0  0
   10.0710   -3.0539   28.1878 C   0  0  0  0  0  0  0  0  0  0  0  0
    6.5446   -5.6181   27.2621 C   0  0  0  0  0  0  0  0  0  0  0  0
    8.5170   -4.6896   26.6735 C   0  0  0  0  0  0  0  0  0  0  0  0
    9.0670   -2.3758   23.0963 C   0  0  0  0  0  0  0  0  0  0  0  0
    7.4603   -5.5312   26.2357 C   0  0  0  0  0  0  0  0  0  0  0  0
   11.2099   -0.8159   23.9667 C   0  0  0  0  0  0  0  0  0  0  0  0
    8.2025   -4.2885   27.9687 C   0  0  0  0  0  0  0  0  0  0  0  0
    7.9852   -5.4197   23.7680 C   0  0  0  0  0  0  0  0  0  0  0  0
    7.3519   -6.1965   24.9220 C   0  0  0  0  0  0  0  0  0  0  0  0
    7.9141   -3.2149   22.6263 C   0  0  0  0  0  0  0  0  0  0  0  0
    8.9265   -3.4831   28.7687 N   0  0  0  0  0  0  0  0  0  0  0  0
    7.0046   -4.8604   28.3078 N   0  0  0  0  0  0  0  0  0  0  0  0
    7.4678   -4.1382   23.6430 N   0  0  0  0  0  0  0  0  0  0  0  0
    8.8569   -5.9007   23.0485 O   0  0  0  0  0  0  0  0  0  0  0  0
   12.5314    0.1464   24.5035 Cl  0  0  0  0  0  0  0  0  0  0  0  0
   11.4420   -2.9803   26.5274 H   0  0  0  0  0  0  0  0  0  0  0  0
   10.0289   -4.4830   25.1192 H   0  0  0  0  0  0  0  0  0  0  0  0
    7.8130   -0.8046   23.8848 H   0  0  0  0  0  0  0  0  0  0  0  0
   10.5691   -3.7667   22.4085 H   0  0  0  0  0  0  0  0  0  0  0  0
    9.7010    0.5742   24.6533 H   0  0  0  0  0  0  0  0  0  0  0  0
   12.4615   -2.3932   23.1753 H   0  0  0  0  0  0  0  0  0  0  0  0
   10.6736   -2.4024   28.8153 H   0  0  0  0  0  0  0  0  0  0  0  0
    5.6073   -6.1510   27.3436 H   0  0  0  0  0  0  0  0  0  0  0  0
    7.8224   -7.1990   24.9449 H   0  0  0  0  0  0  0  0  0  0  0  0
    6.2934   -6.3800   24.6528 H   0  0  0  0  0  0  0  0  0  0  0  0
    7.0641   -2.5821   22.3487 H   0  0  0  0  0  0  0  0  0  0  0  0
    8.1880   -3.7984   21.7411 H   0  0  0  0  0  0  0  0  0  0  0  0
    6.5323   -4.7404   29.1931 H   0  0  0  0  0  0  0  0  0  0  0  0
    6.7466   -3.8378   24.2923 H   0  0  0  0  0  0  0  0  0  0  0  0
  1  2  2  0  0  0  0
  1  7  1  0  0  0  0
  1 22  1  0  0  0  0
  2  9  1  0  0  0  0
  2 23  1  0  0  0  0
  3  5  2  0  0  0  0
  3 10  1  0  0  0  0
  3 24  1  0  0  0  0
  4  6  1  0  0  0  0
  4 10  2  0  0  0  0
  4 25  1  0  0  0  0
  5 12  1  0  0  0  0
  5 26  1  0  0  0  0
  6 12  2  0  0  0  0
  6 27  1  0  0  0  0
  7 17  2  0  0  0  0
  7 28  1  0  0  0  0
  8 11  2  0  0  0  0
  8 18  1  0  0  0  0
  8 29  1  0  0  0  0
  9 11  1  0  0  0  0
  9 13  2  0  0  0  0
 10 16  1  0  0  0  0
 11 15  1  0  0  0  0
 12 21  1  0  0  0  0
 13 17  1  0  0  0  0
 13 18  1  0  0  0  0
 14 15  1  0  0  0  0
 14 19  1  0  0  0  0
 14 20  2  0  0  0  0
 15 30  1  0  0  0  0
 15 31  1  0  0  0  0
 16 19  1  0  0  0  0
 16 32  1  0  0  0  0
 16 33  1  0  0  0  0
 18 34  1  0  0  0  0
 19 35  1  0  0  0  0
M  END
>  <Chemgauss4 Score>
-4.65786695480347

>  <Number of Confs>
200

$$$$
