TRI-UNI-974-1
 OpenBabel03242009303D

 50 52  0  0  0  0  0  0  0  0999 V2000
   12.7303   -0.4051   22.1003 C   0  0  0  0  0  0  0  0  0  0  0  0
   12.1945   -1.6678   21.8473 C   0  0  0  0  0  0  0  0  0  0  0  0
   12.5636    0.1850   23.3532 C   0  0  0  0  0  0  0  0  0  0  0  0
    7.1628   -4.5958   21.9468 C   0  0  0  0  0  0  0  0  0  0  0  0
    6.7866   -5.6904   21.1763 C   0  0  0  0  0  0  0  0  0  0  0  0
   11.4920   -2.3405   22.8471 C   0  0  0  0  0  0  0  0  0  0  0  0
   11.8611   -0.4876   24.3530 C   0  0  0  0  0  0  0  0  0  0  0  0
    6.3919   -4.2266   23.0434 C   0  0  0  0  0  0  0  0  0  0  0  0
    5.6399   -6.3771   21.5416 C   0  0  0  0  0  0  0  0  0  0  0  0
   11.3253   -1.7504   24.1000 C   0  0  0  0  0  0  0  0  0  0  0  0
    5.2628   -4.9787   23.3250 C   0  0  0  0  0  0  0  0  0  0  0  0
    5.8329   -4.1523   26.4977 C   0  0  0  0  0  0  0  0  0  0  0  0
   10.6273   -3.8906   25.1367 C   0  0  0  0  0  0  0  0  0  0  0  0
    9.4215   -1.7822   25.6555 C   0  0  0  0  0  0  0  0  0  0  0  0
   10.2571   -4.3979   26.5327 C   0  0  0  0  0  0  0  0  0  0  0  0
    9.0914   -2.3571   27.0349 C   0  0  0  0  0  0  0  0  0  0  0  0
    4.4067   -4.6086   24.5015 C   0  0  0  0  0  0  0  0  0  0  0  0
    8.6160   -4.3538   28.2947 C   0  0  0  0  0  0  0  0  0  0  0  0
    7.1476   -4.1271   28.6130 C   0  0  0  0  0  0  0  0  0  0  0  0
    4.8656   -6.0484   22.5998 N   0  0  0  0  0  0  0  0  0  0  0  0
   10.6207   -2.4249   25.1033 N   0  0  0  0  0  0  0  0  0  0  0  0
    8.9852   -3.8205   26.9840 N   0  0  0  0  0  0  0  0  0  0  0  0
    5.0126   -4.9967   25.7543 N   0  0  0  0  0  0  0  0  0  0  0  0
    6.2843   -4.7746   27.6628 N   0  0  0  0  0  0  0  0  0  0  0  0
    6.1250   -3.0022   26.1728 O   0  0  0  0  0  0  0  0  0  0  0  0
   13.2771    0.1187   21.3215 H   0  0  0  0  0  0  0  0  0  0  0  0
   12.3243   -2.1270   20.8719 H   0  0  0  0  0  0  0  0  0  0  0  0
   12.9809    1.1685   23.5500 H   0  0  0  0  0  0  0  0  0  0  0  0
    8.0552   -4.0317   21.6930 H   0  0  0  0  0  0  0  0  0  0  0  0
    7.3724   -5.9963   20.3172 H   0  0  0  0  0  0  0  0  0  0  0  0
   11.0784   -3.3240   22.6398 H   0  0  0  0  0  0  0  0  0  0  0  0
   11.7377   -0.0179   25.3256 H   0  0  0  0  0  0  0  0  0  0  0  0
    6.6745   -3.3747   23.6525 H   0  0  0  0  0  0  0  0  0  0  0  0
    5.3036   -7.2381   20.9734 H   0  0  0  0  0  0  0  0  0  0  0  0
   11.6224   -4.2710   24.8743 H   0  0  0  0  0  0  0  0  0  0  0  0
    9.9162   -4.2826   24.3974 H   0  0  0  0  0  0  0  0  0  0  0  0
    8.5728   -1.9337   24.9751 H   0  0  0  0  0  0  0  0  0  0  0  0
    9.5820   -0.7012   25.7512 H   0  0  0  0  0  0  0  0  0  0  0  0
   10.1724   -5.4906   26.4850 H   0  0  0  0  0  0  0  0  0  0  0  0
   11.0682   -4.1672   27.2368 H   0  0  0  0  0  0  0  0  0  0  0  0
    9.8537   -2.0404   27.7596 H   0  0  0  0  0  0  0  0  0  0  0  0
    8.1367   -1.9272   27.3621 H   0  0  0  0  0  0  0  0  0  0  0  0
    4.2364   -3.5268   24.5300 H   0  0  0  0  0  0  0  0  0  0  0  0
    3.4254   -5.0908   24.4407 H   0  0  0  0  0  0  0  0  0  0  0  0
    8.8650   -5.4198   28.2961 H   0  0  0  0  0  0  0  0  0  0  0  0
    9.2436   -3.8485   29.0354 H   0  0  0  0  0  0  0  0  0  0  0  0
    6.9059   -4.5373   29.5984 H   0  0  0  0  0  0  0  0  0  0  0  0
    6.8990   -3.0609   28.6104 H   0  0  0  0  0  0  0  0  0  0  0  0
    4.8314   -5.9302   26.1098 H   0  0  0  0  0  0  0  0  0  0  0  0
    5.9500   -5.7140   27.8684 H   0  0  0  0  0  0  0  0  0  0  0  0
  1  2  1  0  0  0  0
  1  3  2  0  0  0  0
  1 26  1  0  0  0  0
  2  6  2  0  0  0  0
  2 27  1  0  0  0  0
  3  7  1  0  0  0  0
  3 28  1  0  0  0  0
  4  5  1  0  0  0  0
  4  8  2  0  0  0  0
  4 29  1  0  0  0  0
  5  9  2  0  0  0  0
  5 30  1  0  0  0  0
  6 10  1  0  0  0  0
  6 31  1  0  0  0  0
  7 10  2  0  0  0  0
  7 32  1  0  0  0  0
  8 11  1  0  0  0  0
  8 33  1  0  0  0  0
  9 20  1  0  0  0  0
  9 34  1  0  0  0  0
 10 21  1  0  0  0  0
 11 17  1  0  0  0  0
 11 20  2  0  0  0  0
 12 23  1  0  0  0  0
 12 24  1  0  0  0  0
 12 25  2  0  0  0  0
 13 15  1  0  0  0  0
 13 21  1  0  0  0  0
 13 35  1  0  0  0  0
 13 36  1  0  0  0  0
 14 16  1  0  0  0  0
 14 21  1  0  0  0  0
 14 37  1  0  0  0  0
 14 38  1  0  0  0  0
 15 22  1  0  0  0  0
 15 39  1  0  0  0  0
 15 40  1  0  0  0  0
 16 22  1  0  0  0  0
 16 41  1  0  0  0  0
 16 42  1  0  0  0  0
 17 23  1  0  0  0  0
 17 43  1  0  0  0  0
 17 44  1  0  0  0  0
 18 19  1  0  0  0  0
 18 22  1  0  0  0  0
 18 45  1  0  0  0  0
 18 46  1  0  0  0  0
 19 24  1  0  0  0  0
 19 47  1  0  0  0  0
 19 48  1  0  0  0  0
 23 49  1  0  0  0  0
 24 50  1  0  0  0  0
M  END
>  <Chemgauss4 Score>
-5.29884004592896

>  <Number of Confs>
200

$$$$
