DAN-LON-a5f-6
 OpenBabel03242009303D

 44 46  0  0  1  0  0  0  0  0999 V2000
    6.3673   -2.6115   22.3639 C   0  0  0  0  0  0  0  0  0  0  0  0
    7.0961   -3.7839   22.1648 C   0  0  0  0  0  0  0  0  0  0  0  0
    6.9455   -1.5372   23.0403 C   0  0  0  0  0  0  0  0  0  0  0  0
    7.5970   -5.7904   28.7472 C   0  0  0  0  0  0  0  0  0  0  0  0
    8.4031   -3.8823   22.6421 C   0  0  0  0  0  0  0  0  0  0  0  0
    8.2524   -1.6356   23.5176 C   0  0  0  0  0  0  0  0  0  0  0  0
    8.6988   -4.9440   28.6239 C   0  0  0  0  0  0  0  0  0  0  0  0
    6.4672   -5.5844   27.9555 C   0  0  0  0  0  0  0  0  0  0  0  0
    7.5410   -3.6856   26.9171 C   0  0  0  0  0  0  0  0  0  0  0  0
    8.9813   -2.8081   23.3185 C   0  0  0  0  0  0  0  0  0  0  0  0
    8.6708   -3.8916   27.7089 C   0  0  0  0  0  0  0  0  0  0  0  0
    6.4392   -4.5320   27.0404 C   0  0  0  0  0  0  0  0  0  0  0  0
   11.5065   -1.1869   22.4467 C   0  0  0  0  0  0  0  0  0  0  0  0
   11.7233   -1.0969   24.9613 C   0  0  0  0  0  0  0  0  0  0  0  0
   10.8165   -1.2425   26.1889 C   0  0  0  0  0  0  0  0  0  0  0  0
   10.4338   -3.4734   25.2782 C   0  0  0  0  0  0  0  0  0  0  0  0
   10.4112   -2.9151   23.8412 C   0  0  2  0  0  0  0  0  0  0  0  0
    9.8567   -2.9802   27.5776 C   0  0  0  0  0  0  0  0  0  0  0  0
   12.4997   -0.0536   22.3833 C   0  0  0  0  0  0  0  0  0  0  0  0
   11.1632   -1.6498   23.7247 N   0  0  0  0  0  0  0  0  0  0  0  0
    9.9925   -2.4530   26.2251 N   0  0  0  0  0  0  0  0  0  0  0  0
   11.0420   -1.6441   21.3989 O   0  0  0  0  0  0  0  0  0  0  0  0
    5.0446   -4.2777   26.0646 Cl  0  0  0  0  0  0  0  0  0  0  0  0
   14.0985   -0.7877   22.3355 Cl  0  0  0  0  0  0  0  0  0  0  0  0
    5.3501   -2.5346   21.9911 H   0  0  0  0  0  0  0  0  0  0  0  0
    6.6465   -4.6201   21.6372 H   0  0  0  0  0  0  0  0  0  0  0  0
    6.3787   -0.6238   23.1946 H   0  0  0  0  0  0  0  0  0  0  0  0
    7.6191   -6.6097   29.4600 H   0  0  0  0  0  0  0  0  0  0  0  0
    8.9633   -4.7998   22.4825 H   0  0  0  0  0  0  0  0  0  0  0  0
    8.6947   -0.7936   24.0436 H   0  0  0  0  0  0  0  0  0  0  0  0
    9.5748   -5.1118   29.2450 H   0  0  0  0  0  0  0  0  0  0  0  0
    5.6157   -6.2519   28.0625 H   0  0  0  0  0  0  0  0  0  0  0  0
    7.5244   -2.8639   26.2048 H   0  0  0  0  0  0  0  0  0  0  0  0
   11.9270   -0.0294   24.7671 H   0  0  0  0  0  0  0  0  0  0  0  0
   12.6964   -1.5537   25.1948 H   0  0  0  0  0  0  0  0  0  0  0  0
   11.4428   -1.1661   27.1112 H   0  0  0  0  0  0  0  0  0  0  0  0
   10.1555   -0.3454   26.2235 H   0  0  0  0  0  0  0  0  0  0  0  0
    9.7897   -4.3457   25.3400 H   0  0  0  0  0  0  0  0  0  0  0  0
   11.4514   -3.7811   25.5081 H   0  0  0  0  0  0  0  0  0  0  0  0
   10.9051   -3.6731   23.1871 H   0  0  0  0  0  0  0  0  0  0  0  0
    9.7685   -2.1305   28.2635 H   0  0  0  0  0  0  0  0  0  0  0  0
   10.7850   -3.5047   27.8273 H   0  0  0  0  0  0  0  0  0  0  0  0
   12.3956    0.5545   23.2744 H   0  0  0  0  0  0  0  0  0  0  0  0
   12.3242    0.5165   21.4784 H   0  0  0  0  0  0  0  0  0  0  0  0
  1  2  1  0  0  0  0
  1  3  2  0  0  0  0
  1 25  1  0  0  0  0
  2  5  2  0  0  0  0
  2 26  1  0  0  0  0
  3  6  1  0  0  0  0
  3 27  1  0  0  0  0
  4  7  2  0  0  0  0
  4  8  1  0  0  0  0
  4 28  1  0  0  0  0
  5 10  1  0  0  0  0
  5 29  1  0  0  0  0
  6 10  2  0  0  0  0
  6 30  1  0  0  0  0
  7 11  1  0  0  0  0
  7 31  1  0  0  0  0
  8 12  2  0  0  0  0
  8 32  1  0  0  0  0
  9 11  2  0  0  0  0
  9 12  1  0  0  0  0
  9 33  1  0  0  0  0
 10 17  1  0  0  0  0
 11 18  1  0  0  0  0
 12 23  1  0  0  0  0
 13 19  1  0  0  0  0
 13 20  1  0  0  0  0
 13 22  2  0  0  0  0
 14 15  1  0  0  0  0
 14 20  1  0  0  0  0
 14 34  1  0  0  0  0
 14 35  1  0  0  0  0
 15 21  1  0  0  0  0
 15 36  1  0  0  0  0
 15 37  1  0  0  0  0
 16 17  1  0  0  0  0
 16 21  1  0  0  0  0
 16 38  1  0  0  0  0
 16 39  1  0  0  0  0
 17 20  1  0  0  0  0
 17 40  1  6  0  0  0
 18 21  1  0  0  0  0
 18 41  1  0  0  0  0
 18 42  1  0  0  0  0
 19 24  1  0  0  0  0
 19 43  1  0  0  0  0
 19 44  1  0  0  0  0
M  END
>  <Chemgauss4 Score>
-4.5206446647644

>  <Number of Confs>
192

$$$$
