DAV-AUT-fa2-4
 OpenBabel03242009303D

 45 47  0  0  1  0  0  0  0  0999 V2000
    6.6333   -3.8354   23.3889 C   0  0  0  0  0  0  0  0  0  0  0  0
    6.1212   -2.9255   22.4689 C   0  0  0  0  0  0  0  0  0  0  0  0
    8.2144   -1.7365   22.5168 C   0  0  0  0  0  0  0  0  0  0  0  0
    7.9382   -3.6991   23.9047 C   0  0  0  0  0  0  0  0  0  0  0  0
    8.7729   -2.6473   23.4399 C   0  0  0  0  0  0  0  0  0  0  0  0
    6.9092   -1.8703   22.0392 C   0  0  0  0  0  0  0  0  0  0  0  0
   12.1736   -2.0803   22.6850 C   0  0  0  0  0  0  0  0  0  0  0  0
   11.4003   -0.5387   24.5086 C   0  0  0  0  0  0  0  0  0  0  0  0
   10.7031   -3.6251   24.6078 C   0  0  0  0  0  0  0  0  0  0  0  0
   13.1497   -0.9865   22.2711 C   0  0  0  0  0  0  0  0  0  0  0  0
   12.4185    0.4695   23.9914 C   0  0  0  0  0  0  0  0  0  0  0  0
    8.4569   -4.7219   24.9086 C   0  0  1  0  0  0  0  0  0  0  0  0
   10.9558   -1.4794   23.3877 C   0  0  0  0  0  0  0  0  0  0  0  0
    9.7255   -4.2200   25.5954 C   0  0  0  0  0  0  0  0  0  0  0  0
    7.4371   -5.1332   25.9796 C   0  0  0  0  0  0  0  0  0  0  0  0
    7.5809    0.4625   20.6149 C   0  0  0  0  0  0  0  0  0  0  0  0
    6.0615   -1.4755   19.5685 N   0  0  0  0  0  0  0  0  0  0  0  0
   10.0883   -2.5152   23.8906 N   0  0  0  0  0  0  0  0  0  0  0  0
    5.2338    0.0559   21.5850 O   0  0  0  0  0  0  0  0  0  0  0  0
   13.5322   -0.1963   23.3967 O   0  0  0  0  0  0  0  0  0  0  0  0
    9.4213   -3.2909   26.5379 F   0  0  0  0  0  0  0  0  0  0  0  0
   10.3275   -5.2479   26.2474 F   0  0  0  0  0  0  0  0  0  0  0  0
    6.2717   -0.7106   20.9007 S   0  0  1  0  0  0  0  0  0  0  0  0
    6.0045   -4.6660   23.7109 H   0  0  0  0  0  0  0  0  0  0  0  0
    5.1074   -3.0532   22.0978 H   0  0  0  0  0  0  0  0  0  0  0  0
    8.8013   -0.8959   22.1514 H   0  0  0  0  0  0  0  0  0  0  0  0
   11.8241   -2.5928   21.7835 H   0  0  0  0  0  0  0  0  0  0  0  0
   12.6692   -2.8236   23.3129 H   0  0  0  0  0  0  0  0  0  0  0  0
   11.8009   -1.0924   25.3588 H   0  0  0  0  0  0  0  0  0  0  0  0
   10.5196    0.0076   24.8569 H   0  0  0  0  0  0  0  0  0  0  0  0
   11.6127   -3.2873   25.1106 H   0  0  0  0  0  0  0  0  0  0  0  0
   10.9997   -4.4071   23.9027 H   0  0  0  0  0  0  0  0  0  0  0  0
   14.0456   -1.4005   21.7931 H   0  0  0  0  0  0  0  0  0  0  0  0
   12.6718   -0.3194   21.5458 H   0  0  0  0  0  0  0  0  0  0  0  0
   11.9593    1.0989   23.2227 H   0  0  0  0  0  0  0  0  0  0  0  0
   12.7730    1.1319   24.7893 H   0  0  0  0  0  0  0  0  0  0  0  0
    8.7565   -5.6448   24.3611 H   0  0  0  0  0  0  0  0  0  0  0  0
   10.3766   -0.8905   22.6433 H   0  0  0  0  0  0  0  0  0  0  0  0
    7.1200   -4.2553   26.5369 H   0  0  0  0  0  0  0  0  0  0  0  0
    7.8925   -5.8475   26.6608 H   0  0  0  0  0  0  0  0  0  0  0  0
    6.5728   -5.5894   25.5033 H   0  0  0  0  0  0  0  0  0  0  0  0
    7.2243    1.2103   19.9048 H   0  0  0  0  0  0  0  0  0  0  0  0
    7.8378    0.9305   21.5664 H   0  0  0  0  0  0  0  0  0  0  0  0
    8.4399   -0.0728   20.2074 H   0  0  0  0  0  0  0  0  0  0  0  0
    5.6860   -0.8921   18.8149 H   0  0  0  0  0  0  0  0  0  0  0  0
  1  2  2  0  0  0  0
  1  4  1  0  0  0  0
  1 24  1  0  0  0  0
  2  6  1  0  0  0  0
  2 25  1  0  0  0  0
  3  5  1  0  0  0  0
  3  6  2  0  0  0  0
  3 26  1  0  0  0  0
  4  5  2  0  0  0  0
  4 12  1  0  0  0  0
  5 18  1  0  0  0  0
  6 23  1  0  0  0  0
  7 10  1  0  0  0  0
  7 13  1  0  0  0  0
  7 27  1  0  0  0  0
  7 28  1  0  0  0  0
  8 11  1  0  0  0  0
  8 13  1  0  0  0  0
  8 29  1  0  0  0  0
  8 30  1  0  0  0  0
  9 14  1  0  0  0  0
  9 18  1  0  0  0  0
  9 31  1  0  0  0  0
  9 32  1  0  0  0  0
 10 20  1  0  0  0  0
 10 33  1  0  0  0  0
 10 34  1  0  0  0  0
 11 20  1  0  0  0  0
 11 35  1  0  0  0  0
 11 36  1  0  0  0  0
 12 14  1  0  0  0  0
 12 15  1  0  0  0  0
 12 37  1  6  0  0  0
 13 18  1  0  0  0  0
 13 38  1  0  0  0  0
 14 21  1  0  0  0  0
 14 22  1  0  0  0  0
 15 39  1  0  0  0  0
 15 40  1  0  0  0  0
 15 41  1  0  0  0  0
 16 23  1  0  0  0  0
 16 42  1  0  0  0  0
 16 43  1  0  0  0  0
 16 44  1  0  0  0  0
 17 23  2  0  0  0  0
 17 45  1  0  0  0  0
 23 19  2  1  0  0  0
M  END
>  <Chemgauss4 Score>
-5.22739696502686

>  <Number of Confs>
13

$$$$
