HEI-REL-0c9-1
 OpenBabel03242009303D

 51 53  0  0  1  0  0  0  0  0999 V2000
   10.1226   -2.5882   26.2775 C   0  0  0  0  0  0  0  0  0  0  0  0
    9.2633   -3.6183   26.6413 C   0  0  0  0  0  0  0  0  0  0  0  0
    8.6563   -3.8984   24.3213 C   0  0  0  0  0  0  0  0  0  0  0  0
   10.2617   -2.2124   24.9293 C   0  0  0  0  0  0  0  0  0  0  0  0
    9.5122   -2.8546   23.9151 C   0  0  0  0  0  0  0  0  0  0  0  0
    8.5323   -4.2756   25.6623 C   0  0  0  0  0  0  0  0  0  0  0  0
    5.6958    1.1154   18.3365 C   0  0  0  0  0  0  0  0  0  0  0  0
   11.2004   -1.0782   24.6032 C   0  0  0  0  0  0  0  0  0  0  0  0
   11.6080   -1.1028   23.1375 C   0  0  0  0  0  0  0  0  0  0  0  0
    6.0327    0.3410   20.7330 C   0  0  0  0  0  0  0  0  0  0  0  0
    7.6007   -0.3330   18.9578 C   0  0  0  0  0  0  0  0  0  0  0  0
    7.2270    0.5964   21.6542 C   0  0  0  0  0  0  0  0  0  0  0  0
    8.7642   -0.0590   19.9100 C   0  0  0  0  0  0  0  0  0  0  0  0
   10.3998   -1.2716   22.2151 C   0  0  2  0  0  0  0  0  0  0  0  0
    4.4138    1.7783   18.7733 C   0  0  0  0  0  0  0  0  0  0  0  0
    9.1719   -3.3382   21.5021 C   0  0  0  0  0  0  0  0  0  0  0  0
    9.4826   -0.0462   22.2108 C   0  0  0  0  0  0  0  0  0  0  0  0
    9.6350   -2.4718   22.5792 N   0  0  0  0  0  0  0  0  0  0  0  0
    6.4204    0.4485   19.3234 N   0  0  0  0  0  0  0  0  0  0  0  0
    8.3573   -0.2769   21.3058 N   0  0  0  0  0  0  0  0  0  0  0  0
    8.4960   -6.9194   26.0002 N   0  0  0  0  0  0  0  0  0  0  0  0
    6.0433    1.1920   17.1554 O   0  0  0  0  0  0  0  0  0  0  0  0
    7.0602   -5.3887   27.4973 O   0  0  0  0  0  0  0  0  0  0  0  0
    6.4266   -5.6931   25.0779 O   0  0  0  0  0  0  0  0  0  0  0  0
    7.4500   -5.5727   26.1066 S   0  0  0  0  0  0  0  0  0  0  0  0
   10.6908   -2.0748   27.0497 H   0  0  0  0  0  0  0  0  0  0  0  0
    9.1727   -3.8976   27.6871 H   0  0  0  0  0  0  0  0  0  0  0  0
    8.0580   -4.4370   23.5893 H   0  0  0  0  0  0  0  0  0  0  0  0
   10.7069   -0.1303   24.8478 H   0  0  0  0  0  0  0  0  0  0  0  0
   12.1044   -1.1480   25.2200 H   0  0  0  0  0  0  0  0  0  0  0  0
   12.1554   -0.1854   22.8908 H   0  0  0  0  0  0  0  0  0  0  0  0
   12.3040   -1.9351   22.9666 H   0  0  0  0  0  0  0  0  0  0  0  0
    5.6447   -0.6744   20.8812 H   0  0  0  0  0  0  0  0  0  0  0  0
    5.2286    1.0345   20.9868 H   0  0  0  0  0  0  0  0  0  0  0  0
    7.9060   -0.1156   17.9290 H   0  0  0  0  0  0  0  0  0  0  0  0
    7.3126   -1.3908   18.9958 H   0  0  0  0  0  0  0  0  0  0  0  0
    7.5164    1.6493   21.5928 H   0  0  0  0  0  0  0  0  0  0  0  0
    6.9132    0.3929   22.6806 H   0  0  0  0  0  0  0  0  0  0  0  0
    9.5777   -0.7430   19.6571 H   0  0  0  0  0  0  0  0  0  0  0  0
    9.1251    0.9630   19.7642 H   0  0  0  0  0  0  0  0  0  0  0  0
   10.7925   -1.3925   21.1973 H   0  0  0  0  0  0  0  0  0  0  0  0
    4.6276    2.7967   19.0804 H   0  0  0  0  0  0  0  0  0  0  0  0
    3.9908    1.2217   19.6035 H   0  0  0  0  0  0  0  0  0  0  0  0
    3.7144    1.7801   17.9435 H   0  0  0  0  0  0  0  0  0  0  0  0
    9.3604   -2.8525   20.5333 H   0  0  0  0  0  0  0  0  0  0  0  0
    9.7123   -4.2954   21.5436 H   0  0  0  0  0  0  0  0  0  0  0  0
    8.0932   -3.5209   21.6168 H   0  0  0  0  0  0  0  0  0  0  0  0
    9.1340    0.0956   23.2314 H   0  0  0  0  0  0  0  0  0  0  0  0
   10.0800    0.7989   21.8759 H   0  0  0  0  0  0  0  0  0  0  0  0
    8.7924   -7.3695   26.8749 H   0  0  0  0  0  0  0  0  0  0  0  0
    8.3597   -7.5751   25.2213 H   0  0  0  0  0  0  0  0  0  0  0  0
  1  2  2  0  0  0  0
  1  4  1  0  0  0  0
  1 26  1  0  0  0  0
  2  6  1  0  0  0  0
  2 27  1  0  0  0  0
  3  5  1  0  0  0  0
  3  6  2  0  0  0  0
  3 28  1  0  0  0  0
  4  5  2  0  0  0  0
  4  8  1  0  0  0  0
  5 18  1  0  0  0  0
  6 25  1  0  0  0  0
  7 15  1  0  0  0  0
  7 19  1  0  0  0  0
  7 22  2  0  0  0  0
  8  9  1  0  0  0  0
  8 29  1  0  0  0  0
  8 30  1  0  0  0  0
  9 14  1  0  0  0  0
  9 31  1  0  0  0  0
  9 32  1  0  0  0  0
 10 12  1  0  0  0  0
 10 19  1  0  0  0  0
 10 33  1  0  0  0  0
 10 34  1  0  0  0  0
 11 13  1  0  0  0  0
 11 19  1  0  0  0  0
 11 35  1  0  0  0  0
 11 36  1  0  0  0  0
 12 20  1  0  0  0  0
 12 37  1  0  0  0  0
 12 38  1  0  0  0  0
 13 20  1  0  0  0  0
 13 39  1  0  0  0  0
 13 40  1  0  0  0  0
 14 17  1  0  0  0  0
 14 18  1  0  0  0  0
 14 41  1  6  0  0  0
 15 42  1  0  0  0  0
 15 43  1  0  0  0  0
 15 44  1  0  0  0  0
 16 18  1  0  0  0  0
 16 45  1  0  0  0  0
 16 46  1  0  0  0  0
 16 47  1  0  0  0  0
 17 20  1  0  0  0  0
 17 48  1  0  0  0  0
 17 49  1  0  0  0  0
 21 25  1  0  0  0  0
 21 50  1  0  0  0  0
 21 51  1  0  0  0  0
 23 25  2  0  0  0  0
 24 25  2  0  0  0  0
M  END
>  <Chemgauss4 Score>
-5.64073848724365

>  <Number of Confs>
40

$$$$
