DAR-DIA-23a-11
 OpenBabel03242009303D

 32 34  0  0  0  0  0  0  0  0999 V2000
   10.8039    2.1790   23.0676 C   0  0  0  0  0  0  0  0  0  0  0  0
   13.2314   -0.0417   21.3265 C   0  0  0  0  0  0  0  0  0  0  0  0
    8.3635   -3.2784   28.5542 C   0  0  0  0  0  0  0  0  0  0  0  0
   12.5393    1.1026   21.7230 C   0  0  0  0  0  0  0  0  0  0  0  0
    9.0995   -3.3365   27.3721 C   0  0  0  0  0  0  0  0  0  0  0  0
   12.8960   -1.2825   21.8685 C   0  0  0  0  0  0  0  0  0  0  0  0
   11.1766   -0.2346   23.2036 C   0  0  0  0  0  0  0  0  0  0  0  0
    7.6733   -4.4100   28.9675 C   0  0  0  0  0  0  0  0  0  0  0  0
    9.3069   -6.3320   25.2926 C   0  0  0  0  0  0  0  0  0  0  0  0
   11.5120    1.0062   22.6615 C   0  0  0  0  0  0  0  0  0  0  0  0
    9.1014   -4.5467   26.6597 C   0  0  0  0  0  0  0  0  0  0  0  0
   11.8686   -1.3789   22.8071 C   0  0  0  0  0  0  0  0  0  0  0  0
    9.6935   -5.0195   25.4588 C   0  0  0  0  0  0  0  0  0  0  0  0
    8.3651   -5.6026   27.1891 C   0  0  0  0  0  0  0  0  0  0  0  0
   10.5326   -2.9270   24.3028 C   0  0  0  0  0  0  0  0  0  0  0  0
   10.2287    3.1315   23.3974 N   0  0  0  0  0  0  0  0  0  0  0  0
    7.6391   -5.5995   28.3230 N   0  0  0  0  0  0  0  0  0  0  0  0
    8.5013   -6.6749   26.3473 N   0  0  0  0  0  0  0  0  0  0  0  0
   11.5279   -2.6378   23.3556 N   0  0  0  0  0  0  0  0  0  0  0  0
   10.5089   -4.3247   24.5943 N   0  0  0  0  0  0  0  0  0  0  0  0
    9.7813   -2.1041   24.8163 O   0  0  0  0  0  0  0  0  0  0  0  0
   14.0308    0.0332   20.5950 H   0  0  0  0  0  0  0  0  0  0  0  0
    8.3315   -2.3655   29.1397 H   0  0  0  0  0  0  0  0  0  0  0  0
   12.8131    2.0625   21.2919 H   0  0  0  0  0  0  0  0  0  0  0  0
    9.6501   -2.4698   27.0210 H   0  0  0  0  0  0  0  0  0  0  0  0
   13.4421   -2.1676   21.5520 H   0  0  0  0  0  0  0  0  0  0  0  0
   10.3759   -0.3134   23.9365 H   0  0  0  0  0  0  0  0  0  0  0  0
    7.0944   -4.3823   29.8870 H   0  0  0  0  0  0  0  0  0  0  0  0
    9.5307   -7.0545   24.5195 H   0  0  0  0  0  0  0  0  0  0  0  0
    8.0729   -7.5799   26.4842 H   0  0  0  0  0  0  0  0  0  0  0  0
   12.0706   -3.4308   23.0230 H   0  0  0  0  0  0  0  0  0  0  0  0
   11.2154   -4.8651   24.0671 H   0  0  0  0  0  0  0  0  0  0  0  0
  1 10  1  0  0  0  0
  1 16  3  0  0  0  0
  2  4  2  0  0  0  0
  2  6  1  0  0  0  0
  2 22  1  0  0  0  0
  3  5  2  0  0  0  0
  3  8  1  0  0  0  0
  3 23  1  0  0  0  0
  4 10  1  0  0  0  0
  4 24  1  0  0  0  0
  5 11  1  0  0  0  0
  5 25  1  0  0  0  0
  6 12  2  0  0  0  0
  6 26  1  0  0  0  0
  7 10  2  0  0  0  0
  7 12  1  0  0  0  0
  7 27  1  0  0  0  0
  8 17  2  0  0  0  0
  8 28  1  0  0  0  0
  9 13  2  0  0  0  0
  9 18  1  0  0  0  0
  9 29  1  0  0  0  0
 11 13  1  0  0  0  0
 11 14  2  0  0  0  0
 12 19  1  0  0  0  0
 13 20  1  0  0  0  0
 14 17  1  0  0  0  0
 14 18  1  0  0  0  0
 15 19  1  0  0  0  0
 15 20  1  0  0  0  0
 15 21  2  0  0  0  0
 18 30  1  0  0  0  0
 19 31  1  0  0  0  0
 20 32  1  0  0  0  0
M  END
>  <Chemgauss4 Score>
-5.22562980651855

>  <Number of Confs>
10

$$$$
