DAR-DIA-fc9-2
 OpenBabel03242009303D

 34 36  0  0  1  0  0  0  0  0999 V2000
    6.8406   -6.3812   26.7560 C   0  0  0  0  0  0  0  0  0  0  0  0
    6.6871   -5.9544   25.4370 C   0  0  0  0  0  0  0  0  0  0  0  0
    7.6576   -5.6645   27.6305 C   0  0  0  0  0  0  0  0  0  0  0  0
   13.6112   -0.2254   22.6996 C   0  0  0  0  0  0  0  0  0  0  0  0
   12.5698    0.0432   23.5808 C   0  0  0  0  0  0  0  0  0  0  0  0
    7.3507   -4.8109   24.9923 C   0  0  0  0  0  0  0  0  0  0  0  0
    8.3212   -4.5210   27.1858 C   0  0  0  0  0  0  0  0  0  0  0  0
   13.5189   -1.3630   21.9141 C   0  0  0  0  0  0  0  0  0  0  0  0
   11.4862   -1.9326   22.8205 C   0  0  0  0  0  0  0  0  0  0  0  0
   11.4833   -0.8218   23.6487 C   0  0  0  0  0  0  0  0  0  0  0  0
    8.1677   -4.0942   25.8667 C   0  0  0  0  0  0  0  0  0  0  0  0
    8.3142   -2.0933   24.3871 C   0  0  0  0  0  0  0  0  0  0  0  0
   10.5424   -1.1737   25.9736 C   0  0  0  0  0  0  0  0  0  0  0  0
   10.1987   -2.6539   25.9508 C   0  0  0  0  0  0  0  0  0  0  0  0
   10.3296   -0.5559   24.6004 C   0  0  2  0  0  0  0  0  0  0  0  0
   12.4796   -2.2267   21.9520 N   0  0  0  0  0  0  0  0  0  0  0  0
    9.0402   -0.9574   24.0573 N   0  0  0  0  0  0  0  0  0  0  0  0
    8.8554   -2.9087   25.4055 N   0  0  0  0  0  0  0  0  0  0  0  0
    7.2727   -2.3274   23.7665 O   0  0  0  0  0  0  0  0  0  0  0  0
    6.3234   -7.2711   27.1029 H   0  0  0  0  0  0  0  0  0  0  0  0
    6.0504   -6.5116   24.7562 H   0  0  0  0  0  0  0  0  0  0  0  0
    7.7761   -5.9966   28.6578 H   0  0  0  0  0  0  0  0  0  0  0  0
   14.4680    0.4350   22.6296 H   0  0  0  0  0  0  0  0  0  0  0  0
   12.6132    0.9280   24.2101 H   0  0  0  0  0  0  0  0  0  0  0  0
    7.2234   -4.4877   23.9622 H   0  0  0  0  0  0  0  0  0  0  0  0
    8.9553   -3.9704   27.8762 H   0  0  0  0  0  0  0  0  0  0  0  0
   14.3055   -1.6170   21.2110 H   0  0  0  0  0  0  0  0  0  0  0  0
   10.6654   -2.6431   22.8292 H   0  0  0  0  0  0  0  0  0  0  0  0
    9.9189   -0.6600   26.7265 H   0  0  0  0  0  0  0  0  0  0  0  0
   11.5874   -1.0389   26.3094 H   0  0  0  0  0  0  0  0  0  0  0  0
   10.9364   -3.1949   25.3460 H   0  0  0  0  0  0  0  0  0  0  0  0
   10.2205   -3.0674   26.9669 H   0  0  0  0  0  0  0  0  0  0  0  0
   10.2643    0.5595   24.7135 H   0  0  0  0  0  0  0  0  0  0  0  0
    8.6250   -0.3367   23.3585 H   0  0  0  0  0  0  0  0  0  0  0  0
  1  2  1  0  0  0  0
  1  3  2  0  0  0  0
  1 20  1  0  0  0  0
  2  6  2  0  0  0  0
  2 21  1  0  0  0  0
  3  7  1  0  0  0  0
  3 22  1  0  0  0  0
  4  5  2  0  0  0  0
  4  8  1  0  0  0  0
  4 23  1  0  0  0  0
  5 10  1  0  0  0  0
  5 24  1  0  0  0  0
  6 11  1  0  0  0  0
  6 25  1  0  0  0  0
  7 11  2  0  0  0  0
  7 26  1  0  0  0  0
  8 16  2  0  0  0  0
  8 27  1  0  0  0  0
  9 10  2  0  0  0  0
  9 16  1  0  0  0  0
  9 28  1  0  0  0  0
 10 15  1  0  0  0  0
 11 18  1  0  0  0  0
 12 17  1  0  0  0  0
 12 18  1  0  0  0  0
 12 19  2  0  0  0  0
 13 14  1  0  0  0  0
 13 15  1  0  0  0  0
 13 29  1  0  0  0  0
 13 30  1  0  0  0  0
 14 18  1  0  0  0  0
 14 31  1  0  0  0  0
 14 32  1  0  0  0  0
 15 17  1  0  0  0  0
 15 33  1  1  0  0  0
 17 34  1  0  0  0  0
M  END
>  <Chemgauss4 Score>
-5.02093076705933

>  <Number of Confs>
27

$$$$
