JOR-UNI-2fc-13
 OpenBabel03242009303D

 49 51  0  0  0  0  0  0  0  0999 V2000
   12.0430   -1.1893   23.2232 C   0  0  0  0  0  0  0  0  0  0  0  0
    3.9126   -6.4693   24.1424 C   0  0  0  0  0  0  0  0  0  0  0  0
   11.2476   -2.3319   23.3077 C   0  0  0  0  0  0  0  0  0  0  0  0
    5.1133   -5.9090   24.5640 C   0  0  0  0  0  0  0  0  0  0  0  0
   11.5049    0.0596   23.5340 C   0  0  0  0  0  0  0  0  0  0  0  0
    9.3759   -0.9769   24.0135 C   0  0  0  0  0  0  0  0  0  0  0  0
    3.3586   -6.0026   22.9613 C   0  0  0  0  0  0  0  0  0  0  0  0
    5.0801   -4.5164   22.6364 C   0  0  0  0  0  0  0  0  0  0  0  0
    9.9140   -2.2258   23.7028 C   0  0  0  0  0  0  0  0  0  0  0  0
    5.7147   -4.9132   23.8024 C   0  0  0  0  0  0  0  0  0  0  0  0
   10.1714    0.1658   23.9291 C   0  0  0  0  0  0  0  0  0  0  0  0
    7.6588   -3.3184   23.5501 C   0  0  0  0  0  0  0  0  0  0  0  0
    7.6469   -5.5738   27.8378 C   0  0  0  0  0  0  0  0  0  0  0  0
    9.1712   -3.8394   28.8440 C   0  0  0  0  0  0  0  0  0  0  0  0
    8.6874   -5.7783   26.7322 C   0  0  0  0  0  0  0  0  0  0  0  0
   10.1543   -4.1087   27.7003 C   0  0  0  0  0  0  0  0  0  0  0  0
    8.2674   -5.0382   29.1270 C   0  0  0  0  0  0  0  0  0  0  0  0
   10.3958   -4.7403   25.3887 C   0  0  0  0  0  0  0  0  0  0  0  0
    9.7145   -4.6946   24.0313 C   0  0  0  0  0  0  0  0  0  0  0  0
    3.9133   -5.0372   22.1947 N   0  0  0  0  0  0  0  0  0  0  0  0
    9.4500   -4.5469   26.4878 N   0  0  0  0  0  0  0  0  0  0  0  0
    6.9372   -4.3236   24.2060 N   0  0  0  0  0  0  0  0  0  0  0  0
    9.0786   -3.4277   23.7901 N   0  0  0  0  0  0  0  0  0  0  0  0
    7.1393   -2.4462   22.8520 O   0  0  0  0  0  0  0  0  0  0  0  0
    9.0064   -6.0672   29.7809 O   0  0  0  0  0  0  0  0  0  0  0  0
    9.5074    1.7066   24.3126 Cl  0  0  0  0  0  0  0  0  0  0  0  0
   13.0814   -1.2720   22.9155 H   0  0  0  0  0  0  0  0  0  0  0  0
    3.4259   -7.2467   24.7202 H   0  0  0  0  0  0  0  0  0  0  0  0
   11.6779   -3.2999   23.0629 H   0  0  0  0  0  0  0  0  0  0  0  0
    5.5712   -6.2554   25.4868 H   0  0  0  0  0  0  0  0  0  0  0  0
   12.1370    0.9410   23.4638 H   0  0  0  0  0  0  0  0  0  0  0  0
    8.3357   -0.8979   24.3217 H   0  0  0  0  0  0  0  0  0  0  0  0
    2.4226   -6.4066   22.5898 H   0  0  0  0  0  0  0  0  0  0  0  0
    5.5007   -3.7438   21.9996 H   0  0  0  0  0  0  0  0  0  0  0  0
    6.8615   -4.8849   27.4916 H   0  0  0  0  0  0  0  0  0  0  0  0
    7.1268   -6.5235   28.0431 H   0  0  0  0  0  0  0  0  0  0  0  0
    9.7243   -3.5677   29.7579 H   0  0  0  0  0  0  0  0  0  0  0  0
    8.5552   -2.9584   28.6080 H   0  0  0  0  0  0  0  0  0  0  0  0
    9.3654   -6.5804   27.0480 H   0  0  0  0  0  0  0  0  0  0  0  0
    8.1865   -6.1175   25.8158 H   0  0  0  0  0  0  0  0  0  0  0  0
   10.7457   -3.2043   27.5049 H   0  0  0  0  0  0  0  0  0  0  0  0
   10.8512   -4.8896   28.0288 H   0  0  0  0  0  0  0  0  0  0  0  0
    7.4563   -4.7293   29.8176 H   0  0  0  0  0  0  0  0  0  0  0  0
   11.1629   -3.9644   25.4769 H   0  0  0  0  0  0  0  0  0  0  0  0
   10.8681   -5.7160   25.5395 H   0  0  0  0  0  0  0  0  0  0  0  0
   10.4490   -4.8424   23.2336 H   0  0  0  0  0  0  0  0  0  0  0  0
    8.9467   -5.4701   23.9441 H   0  0  0  0  0  0  0  0  0  0  0  0
    7.3378   -4.6703   25.0731 H   0  0  0  0  0  0  0  0  0  0  0  0
    8.3784   -6.7810   29.9768 H   0  0  0  0  0  0  0  0  0  0  0  0
  1  3  2  0  0  0  0
  1  5  1  0  0  0  0
  1 27  1  0  0  0  0
  2  4  2  0  0  0  0
  2  7  1  0  0  0  0
  2 28  1  0  0  0  0
  3  9  1  0  0  0  0
  3 29  1  0  0  0  0
  4 10  1  0  0  0  0
  4 30  1  0  0  0  0
  5 11  2  0  0  0  0
  5 31  1  0  0  0  0
  6  9  2  0  0  0  0
  6 11  1  0  0  0  0
  6 32  1  0  0  0  0
  7 20  2  0  0  0  0
  7 33  1  0  0  0  0
  8 10  2  0  0  0  0
  8 20  1  0  0  0  0
  8 34  1  0  0  0  0
  9 23  1  0  0  0  0
 10 22  1  0  0  0  0
 11 26  1  0  0  0  0
 12 22  1  0  0  0  0
 12 23  1  0  0  0  0
 12 24  2  0  0  0  0
 13 15  1  0  0  0  0
 13 17  1  0  0  0  0
 13 35  1  0  0  0  0
 13 36  1  0  0  0  0
 14 16  1  0  0  0  0
 14 17  1  0  0  0  0
 14 37  1  0  0  0  0
 14 38  1  0  0  0  0
 15 21  1  0  0  0  0
 15 39  1  0  0  0  0
 15 40  1  0  0  0  0
 16 21  1  0  0  0  0
 16 41  1  0  0  0  0
 16 42  1  0  0  0  0
 17 25  1  0  0  0  0
 17 43  1  0  0  0  0
 18 19  1  0  0  0  0
 18 21  1  0  0  0  0
 18 44  1  0  0  0  0
 18 45  1  0  0  0  0
 19 23  1  0  0  0  0
 19 46  1  0  0  0  0
 19 47  1  0  0  0  0
 22 48  1  0  0  0  0
 25 49  1  0  0  0  0
M  END
>  <Chemgauss4 Score>
-4.5630841255188

>  <Number of Confs>
200

$$$$
