CHR-SOS-e96-3
 OpenBabel03242009303D

 43 45  0  0  0  0  0  0  0  0999 V2000
   10.0294   -1.6130   26.7336 C   0  0  0  0  0  0  0  0  0  0  0  0
    5.6334   -3.9446   22.7613 C   0  0  0  0  0  0  0  0  0  0  0  0
   10.6613   -1.0609   25.6194 C   0  0  0  0  0  0  0  0  0  0  0  0
    6.8352   -3.2919   22.5109 C   0  0  0  0  0  0  0  0  0  0  0  0
    9.5870   -2.9355   26.7005 C   0  0  0  0  0  0  0  0  0  0  0  0
   10.4083   -3.1536   24.4389 C   0  0  0  0  0  0  0  0  0  0  0  0
    4.8020   -3.4207   23.7380 C   0  0  0  0  0  0  0  0  0  0  0  0
    6.2643   -1.7073   24.1901 C   0  0  0  0  0  0  0  0  0  0  0  0
   10.8508   -1.8311   24.4721 C   0  0  0  0  0  0  0  0  0  0  0  0
    7.1643   -2.1512   23.2347 C   0  0  0  0  0  0  0  0  0  0  0  0
    9.7764   -3.7057   25.5532 C   0  0  0  0  0  0  0  0  0  0  0  0
    9.3749   -1.7887   22.0840 C   0  0  0  0  0  0  0  0  0  0  0  0
   13.5068   -0.6908   22.3426 C   0  0  0  0  0  0  0  0  0  0  0  0
   12.6429   -0.0795   23.4595 C   0  0  0  0  0  0  0  0  0  0  0  0
   12.7555   -2.0155   22.5630 C   0  0  0  0  0  0  0  0  0  0  0  0
   11.5760   -1.1964   23.1919 C   0  0  0  0  0  0  0  0  0  0  0  0
   10.5081   -0.7846   22.1684 C   0  0  0  0  0  0  0  0  0  0  0  0
    5.0875   -2.3149   24.4615 N   0  0  0  0  0  0  0  0  0  0  0  0
   10.6080   -6.1802   26.0921 N   0  0  0  0  0  0  0  0  0  0  0  0
    8.3803   -1.4654   23.0026 N   0  0  0  0  0  0  0  0  0  0  0  0
    9.3869   -2.7311   21.2989 O   0  0  0  0  0  0  0  0  0  0  0  0
    8.1490   -5.5117   26.4822 O   0  0  0  0  0  0  0  0  0  0  0  0
    9.0048   -5.7419   24.1238 O   0  0  0  0  0  0  0  0  0  0  0  0
    9.2248   -5.3616   25.5122 S   0  0  0  0  0  0  0  0  0  0  0  0
    9.8826   -1.0134   27.6274 H   0  0  0  0  0  0  0  0  0  0  0  0
    5.3563   -4.8355   22.2093 H   0  0  0  0  0  0  0  0  0  0  0  0
   11.0029   -0.0298   25.6526 H   0  0  0  0  0  0  0  0  0  0  0  0
    7.5074   -3.6802   21.7503 H   0  0  0  0  0  0  0  0  0  0  0  0
    9.0961   -3.3557   27.5744 H   0  0  0  0  0  0  0  0  0  0  0  0
   10.5582   -3.7510   23.5431 H   0  0  0  0  0  0  0  0  0  0  0  0
    3.8537   -3.8935   23.9717 H   0  0  0  0  0  0  0  0  0  0  0  0
    6.4650   -0.8225   24.7869 H   0  0  0  0  0  0  0  0  0  0  0  0
   13.3397   -0.2438   21.3564 H   0  0  0  0  0  0  0  0  0  0  0  0
   14.5818   -0.7188   22.5383 H   0  0  0  0  0  0  0  0  0  0  0  0
   13.1133   -0.1351   24.4492 H   0  0  0  0  0  0  0  0  0  0  0  0
   12.3192    0.9515   23.2888 H   0  0  0  0  0  0  0  0  0  0  0  0
   12.5247   -2.5787   21.6541 H   0  0  0  0  0  0  0  0  0  0  0  0
   13.2619   -2.6870   23.2672 H   0  0  0  0  0  0  0  0  0  0  0  0
   10.9774   -0.6930   21.1869 H   0  0  0  0  0  0  0  0  0  0  0  0
   10.1025    0.1880   22.4540 H   0  0  0  0  0  0  0  0  0  0  0  0
   10.5688   -6.5838   27.0360 H   0  0  0  0  0  0  0  0  0  0  0  0
   11.1530   -6.7387   25.4241 H   0  0  0  0  0  0  0  0  0  0  0  0
    8.5324   -0.6418   23.5812 H   0  0  0  0  0  0  0  0  0  0  0  0
  1  3  1  0  0  0  0
  1  5  2  0  0  0  0
  1 25  1  0  0  0  0
  2  4  2  0  0  0  0
  2  7  1  0  0  0  0
  2 26  1  0  0  0  0
  3  9  2  0  0  0  0
  3 27  1  0  0  0  0
  4 10  1  0  0  0  0
  4 28  1  0  0  0  0
  5 11  1  0  0  0  0
  5 29  1  0  0  0  0
  6  9  1  0  0  0  0
  6 11  2  0  0  0  0
  6 30  1  0  0  0  0
  7 18  2  0  0  0  0
  7 31  1  0  0  0  0
  8 10  2  0  0  0  0
  8 18  1  0  0  0  0
  8 32  1  0  0  0  0
  9 16  1  0  0  0  0
 10 20  1  0  0  0  0
 11 24  1  0  0  0  0
 12 17  1  0  0  0  0
 12 20  1  0  0  0  0
 12 21  2  0  0  0  0
 13 14  1  0  0  0  0
 13 15  1  0  0  0  0
 13 33  1  0  0  0  0
 13 34  1  0  0  0  0
 14 16  1  0  0  0  0
 14 35  1  0  0  0  0
 14 36  1  0  0  0  0
 15 16  1  0  0  0  0
 15 37  1  0  0  0  0
 15 38  1  0  0  0  0
 16 17  1  0  0  0  0
 17 39  1  0  0  0  0
 17 40  1  0  0  0  0
 19 24  1  0  0  0  0
 19 41  1  0  0  0  0
 19 42  1  0  0  0  0
 20 43  1  0  0  0  0
 22 24  2  0  0  0  0
 23 24  2  0  0  0  0
M  END
>  <Chemgauss4 Score>
-5.88148975372314

>  <Number of Confs>
200

$$$$
