CHR-SOS-f73-4
 OpenBabel03242009303D

 41 43  0  0  0  0  0  0  0  0999 V2000
    7.0498   -2.1223   22.5709 C   0  0  0  0  0  0  0  0  0  0  0  0
    8.0265   -3.0779   22.2909 C   0  0  0  0  0  0  0  0  0  0  0  0
    7.3760   -0.9890   23.3158 C   0  0  0  0  0  0  0  0  0  0  0  0
    5.8721   -4.7293   26.8852 C   0  0  0  0  0  0  0  0  0  0  0  0
    9.3296   -2.9002   22.7558 C   0  0  0  0  0  0  0  0  0  0  0  0
    8.6791   -0.8113   23.7808 C   0  0  0  0  0  0  0  0  0  0  0  0
    6.8495   -3.7695   26.6469 C   0  0  0  0  0  0  0  0  0  0  0  0
    6.2132   -6.0604   26.7078 C   0  0  0  0  0  0  0  0  0  0  0  0
    8.3609   -5.5211   26.0957 C   0  0  0  0  0  0  0  0  0  0  0  0
    9.6559   -1.7669   23.5008 C   0  0  0  0  0  0  0  0  0  0  0  0
    8.1203   -4.1647   26.2442 C   0  0  0  0  0  0  0  0  0  0  0  0
   10.4451   -3.4527   25.5879 C   0  0  0  0  0  0  0  0  0  0  0  0
   12.3075   -1.2185   21.9339 C   0  0  0  0  0  0  0  0  0  0  0  0
   12.0262    0.1513   22.5481 C   0  0  0  0  0  0  0  0  0  0  0  0
   12.1243   -2.2266   23.0675 C   0  0  0  0  0  0  0  0  0  0  0  0
   11.6249   -0.1186   23.9979 C   0  0  0  0  0  0  0  0  0  0  0  0
   11.0912   -1.5707   24.0135 C   0  0  0  0  0  0  0  0  0  0  0  0
   11.1946   -2.1427   25.4374 C   0  0  0  0  0  0  0  0  0  0  0  0
    7.4369   -6.4826   26.3178 N   0  0  0  0  0  0  0  0  0  0  0  0
    9.1357   -3.2112   25.9938 N   0  0  0  0  0  0  0  0  0  0  0  0
   10.9693   -4.5398   25.3689 O   0  0  0  0  0  0  0  0  0  0  0  0
    6.0355   -2.2601   22.2077 H   0  0  0  0  0  0  0  0  0  0  0  0
    7.7729   -3.9598   21.7100 H   0  0  0  0  0  0  0  0  0  0  0  0
    6.6161   -0.2443   23.5331 H   0  0  0  0  0  0  0  0  0  0  0  0
    4.8746   -4.4442   27.1999 H   0  0  0  0  0  0  0  0  0  0  0  0
   10.0840   -3.6501   22.5330 H   0  0  0  0  0  0  0  0  0  0  0  0
    8.9241    0.0747   24.3605 H   0  0  0  0  0  0  0  0  0  0  0  0
    6.6104   -2.7175   26.7779 H   0  0  0  0  0  0  0  0  0  0  0  0
    5.4863   -6.8473   26.8800 H   0  0  0  0  0  0  0  0  0  0  0  0
    9.3332   -5.8911   25.7840 H   0  0  0  0  0  0  0  0  0  0  0  0
   11.6364   -1.4345   21.0990 H   0  0  0  0  0  0  0  0  0  0  0  0
   13.3321   -1.2531   21.5521 H   0  0  0  0  0  0  0  0  0  0  0  0
   12.9277    0.7698   22.5093 H   0  0  0  0  0  0  0  0  0  0  0  0
   11.2372    0.6831   22.0106 H   0  0  0  0  0  0  0  0  0  0  0  0
   11.7297   -3.1589   22.6541 H   0  0  0  0  0  0  0  0  0  0  0  0
   13.0667   -2.4563   23.5649 H   0  0  0  0  0  0  0  0  0  0  0  0
   12.4608    0.0314   24.6860 H   0  0  0  0  0  0  0  0  0  0  0  0
   10.8351    0.5849   24.2851 H   0  0  0  0  0  0  0  0  0  0  0  0
   10.7846   -1.4150   26.1411 H   0  0  0  0  0  0  0  0  0  0  0  0
   12.2476   -2.3051   25.6775 H   0  0  0  0  0  0  0  0  0  0  0  0
    8.8634   -2.2399   26.1301 H   0  0  0  0  0  0  0  0  0  0  0  0
  1  2  1  0  0  0  0
  1  3  2  0  0  0  0
  1 22  1  0  0  0  0
  2  5  2  0  0  0  0
  2 23  1  0  0  0  0
  3  6  1  0  0  0  0
  3 24  1  0  0  0  0
  4  7  2  0  0  0  0
  4  8  1  0  0  0  0
  4 25  1  0  0  0  0
  5 10  1  0  0  0  0
  5 26  1  0  0  0  0
  6 10  2  0  0  0  0
  6 27  1  0  0  0  0
  7 11  1  0  0  0  0
  7 28  1  0  0  0  0
  8 19  2  0  0  0  0
  8 29  1  0  0  0  0
  9 11  2  0  0  0  0
  9 19  1  0  0  0  0
  9 30  1  0  0  0  0
 10 17  1  0  0  0  0
 11 20  1  0  0  0  0
 12 18  1  0  0  0  0
 12 20  1  0  0  0  0
 12 21  2  0  0  0  0
 13 14  1  0  0  0  0
 13 15  1  0  0  0  0
 13 31  1  0  0  0  0
 13 32  1  0  0  0  0
 14 16  1  0  0  0  0
 14 33  1  0  0  0  0
 14 34  1  0  0  0  0
 15 17  1  0  0  0  0
 15 35  1  0  0  0  0
 15 36  1  0  0  0  0
 16 17  1  0  0  0  0
 16 37  1  0  0  0  0
 16 38  1  0  0  0  0
 17 18  1  0  0  0  0
 18 39  1  0  0  0  0
 18 40  1  0  0  0  0
 20 41  1  0  0  0  0
M  END
>  <Chemgauss4 Score>
-5.61147356033325

>  <Number of Confs>
99

$$$$
