MIH-UNI-6b9-7
 OpenBabel03242009303D

 37 39  0  0  1  0  0  0  0  0999 V2000
    6.3765   -4.3127   28.0742 C   0  0  0  0  0  0  0  0  0  0  0  0
    7.3542   -3.5083   27.4994 C   0  0  0  0  0  0  0  0  0  0  0  0
   12.1017    0.2092   23.0477 C   0  0  0  0  0  0  0  0  0  0  0  0
    6.4937   -5.6849   27.9222 C   0  0  0  0  0  0  0  0  0  0  0  0
    8.4309   -5.4746   26.7053 C   0  0  0  0  0  0  0  0  0  0  0  0
   13.1416    0.6484   22.2582 C   0  0  0  0  0  0  0  0  0  0  0  0
   12.5494   -1.6920   21.7877 C   0  0  0  0  0  0  0  0  0  0  0  0
   11.7587   -1.1467   22.7753 C   0  0  0  0  0  0  0  0  0  0  0  0
    8.4044   -4.0926   26.8000 C   0  0  0  0  0  0  0  0  0  0  0  0
   11.1834   -3.1133   24.2663 C   0  0  0  0  0  0  0  0  0  0  0  0
    9.5348   -2.3461   22.5326 C   0  0  0  0  0  0  0  0  0  0  0  0
   10.6511   -1.8994   23.4898 C   0  0  2  0  0  0  0  0  0  0  0  0
   10.0564   -3.9177   24.9219 C   0  0  1  0  0  0  0  0  0  0  0  0
    8.4568   -3.1275   23.2927 C   0  0  1  0  0  0  0  0  0  0  0  0
    9.4777   -3.2500   26.1675 C   0  0  0  0  0  0  0  0  0  0  0  0
    7.4993   -6.2887   27.2502 N   0  0  0  0  0  0  0  0  0  0  0  0
    7.4235   -3.5787   22.3602 N   0  0  0  0  0  0  0  0  0  0  0  0
    9.0338   -4.2431   23.9758 O   0  0  0  0  0  0  0  0  0  0  0  0
   13.6998   -0.5713   21.1937 S   0  0  0  0  0  0  0  0  0  0  0  0
    5.5489   -3.8792   28.6241 H   0  0  0  0  0  0  0  0  0  0  0  0
    7.2899   -2.4285   27.6015 H   0  0  0  0  0  0  0  0  0  0  0  0
   11.6129    0.8344   23.7842 H   0  0  0  0  0  0  0  0  0  0  0  0
    5.7566   -6.3555   28.3515 H   0  0  0  0  0  0  0  0  0  0  0  0
    9.2258   -5.9869   26.1721 H   0  0  0  0  0  0  0  0  0  0  0  0
   13.5997    1.6274   22.2550 H   0  0  0  0  0  0  0  0  0  0  0  0
   12.5091   -2.6938   21.3829 H   0  0  0  0  0  0  0  0  0  0  0  0
   11.7106   -3.7735   23.5633 H   0  0  0  0  0  0  0  0  0  0  0  0
   11.9216   -2.8027   25.0160 H   0  0  0  0  0  0  0  0  0  0  0  0
    9.0968   -1.4736   22.0305 H   0  0  0  0  0  0  0  0  0  0  0  0
    9.9696   -2.9829   21.7489 H   0  0  0  0  0  0  0  0  0  0  0  0
   10.2168   -1.1814   24.2156 H   0  0  0  0  0  0  0  0  0  0  0  0
   10.4795   -4.8782   25.2444 H   0  0  0  0  0  0  0  0  0  0  0  0
    7.9685   -2.4748   24.0309 H   0  0  0  0  0  0  0  0  0  0  0  0
    9.0732   -2.2686   25.9000 H   0  0  0  0  0  0  0  0  0  0  0  0
   10.2809   -3.0653   26.8882 H   0  0  0  0  0  0  0  0  0  0  0  0
    7.6750   -3.2748   21.4501 H   0  0  0  0  0  0  0  0  0  0  0  0
    7.3818   -4.5688   22.4019 H   0  0  0  0  0  0  0  0  0  0  0  0
  1  2  2  0  0  0  0
  1  4  1  0  0  0  0
  1 20  1  0  0  0  0
  2  9  1  0  0  0  0
  2 21  1  0  0  0  0
  3  6  2  0  0  0  0
  3  8  1  0  0  0  0
  3 22  1  0  0  0  0
  4 16  2  0  0  0  0
  4 23  1  0  0  0  0
  5  9  2  0  0  0  0
  5 16  1  0  0  0  0
  5 24  1  0  0  0  0
  6 19  1  0  0  0  0
  6 25  1  0  0  0  0
  7  8  2  0  0  0  0
  7 19  1  0  0  0  0
  7 26  1  0  0  0  0
  8 12  1  0  0  0  0
  9 15  1  0  0  0  0
 10 12  1  0  0  0  0
 10 13  1  0  0  0  0
 10 27  1  0  0  0  0
 10 28  1  0  0  0  0
 11 12  1  0  0  0  0
 11 14  1  0  0  0  0
 11 29  1  0  0  0  0
 11 30  1  0  0  0  0
 12 31  1  1  0  0  0
 13 15  1  0  0  0  0
 13 18  1  0  0  0  0
 13 32  1  1  0  0  0
 14 17  1  0  0  0  0
 14 18  1  0  0  0  0
 14 33  1  1  0  0  0
 15 34  1  0  0  0  0
 15 35  1  0  0  0  0
 17 36  1  0  0  0  0
 17 37  1  0  0  0  0
M  END
>  <Chemgauss4 Score>
-5.49370193481445

>  <Number of Confs>
96

$$$$
