GIA-UNK-5ec-1
 OpenBabel03242009303D

 32 33  0  0  0  0  0  0  0  0999 V2000
    8.2729   -4.7576   28.8352 C   0  0  0  0  0  0  0  0  0  0  0  0
    8.3101   -3.4104   28.4758 C   0  0  0  0  0  0  0  0  0  0  0  0
    8.0919   -5.7356   27.8572 C   0  0  0  0  0  0  0  0  0  0  0  0
    8.1662   -3.0410   27.1385 C   0  0  0  0  0  0  0  0  0  0  0  0
    7.9479   -5.3663   26.5198 C   0  0  0  0  0  0  0  0  0  0  0  0
    7.9850   -4.0190   26.1604 C   0  0  0  0  0  0  0  0  0  0  0  0
    7.8345   -3.6328   24.7624 C   0  0  0  0  0  0  0  0  0  0  0  0
   12.0837   -1.0014   22.6001 C   0  0  0  0  0  0  0  0  0  0  0  0
    9.8454   -1.9729   22.2845 C   0  0  0  0  0  0  0  0  0  0  0  0
   11.3158   -2.7070   24.1979 C   0  0  0  0  0  0  0  0  0  0  0  0
    8.9176   -3.1506   22.5784 C   0  0  0  0  0  0  0  0  0  0  0  0
   10.3626   -3.8739   24.4442 C   0  0  0  0  0  0  0  0  0  0  0  0
   11.2734   -2.2762   22.7331 C   0  0  0  0  0  0  0  0  0  0  0  0
    9.0057   -3.5369   23.9888 N   0  0  0  0  0  0  0  0  0  0  0  0
    6.7153   -3.4028   24.3009 O   0  0  0  0  0  0  0  0  0  0  0  0
   11.8229    0.0353   23.1963 O   0  0  0  0  0  0  0  0  0  0  0  0
   13.4534   -1.1216   21.5047 S   0  0  0  0  0  0  0  0  0  0  0  0
    8.3850   -5.0451   29.8765 H   0  0  0  0  0  0  0  0  0  0  0  0
    8.4509   -2.6490   29.2375 H   0  0  0  0  0  0  0  0  0  0  0  0
    8.0632   -6.7846   28.1369 H   0  0  0  0  0  0  0  0  0  0  0  0
    8.1967   -1.9883   26.8695 H   0  0  0  0  0  0  0  0  0  0  0  0
    7.8072   -6.1368   25.7662 H   0  0  0  0  0  0  0  0  0  0  0  0
    9.8451   -1.7898   21.2117 H   0  0  0  0  0  0  0  0  0  0  0  0
    9.4659   -1.0822   22.7779 H   0  0  0  0  0  0  0  0  0  0  0  0
   11.0502   -1.8789   24.8500 H   0  0  0  0  0  0  0  0  0  0  0  0
   12.3277   -3.0221   24.4462 H   0  0  0  0  0  0  0  0  0  0  0  0
    7.8745   -2.8845   22.3749 H   0  0  0  0  0  0  0  0  0  0  0  0
    9.1727   -3.9953   21.9313 H   0  0  0  0  0  0  0  0  0  0  0  0
   10.7428   -4.7666   23.9420 H   0  0  0  0  0  0  0  0  0  0  0  0
   10.2983   -4.1100   25.5121 H   0  0  0  0  0  0  0  0  0  0  0  0
   11.7261   -2.9978   22.1104 H   0  0  0  0  0  0  0  0  0  0  0  0
   13.8885    0.1381   21.6532 H   0  0  0  0  0  0  0  0  0  0  0  0
  1  2  1  0  0  0  0
  1  3  2  0  0  0  0
  1 18  1  0  0  0  0
  2  4  2  0  0  0  0
  2 19  1  0  0  0  0
  3  5  1  0  0  0  0
  3 20  1  0  0  0  0
  4  6  1  0  0  0  0
  4 21  1  0  0  0  0
  5  6  2  0  0  0  0
  5 22  1  0  0  0  0
  6  7  1  0  0  0  0
  7 14  1  0  0  0  0
  7 15  2  0  0  0  0
  8 13  1  0  0  0  0
  8 16  2  0  0  0  0
  8 17  1  0  0  0  0
  9 11  1  0  0  0  0
  9 13  1  0  0  0  0
  9 23  1  0  0  0  0
  9 24  1  0  0  0  0
 10 12  1  0  0  0  0
 10 13  1  0  0  0  0
 10 25  1  0  0  0  0
 10 26  1  0  0  0  0
 11 14  1  0  0  0  0
 11 27  1  0  0  0  0
 11 28  1  0  0  0  0
 12 14  1  0  0  0  0
 12 29  1  0  0  0  0
 12 30  1  0  0  0  0
 13 31  1  0  0  0  0
 17 32  1  0  0  0  0
M  END
>  <Chemgauss4 Score>
-5.26096439361572

>  <Number of Confs>
29

$$$$
