CHR-SOS-6c4-8
 OpenBabel03242009303D

 41 43  0  0  0  0  0  0  0  0999 V2000
   10.3751   -3.2651   24.0891 C   0  0  0  0  0  0  0  0  0  0  0  0
   10.8841   -2.6113   23.2195 C   0  0  0  0  0  0  0  0  0  0  0  0
    7.8425   -5.0804   26.1266 C   0  0  0  0  0  0  0  0  0  0  0  0
    8.4043   -4.3191   25.1078 C   0  0  0  0  0  0  0  0  0  0  0  0
    5.5544    1.5529   19.4271 C   0  0  0  0  0  0  0  0  0  0  0  0
    8.6801   -5.5403   27.1300 C   0  0  0  0  0  0  0  0  0  0  0  0
    5.1807    2.0993   20.6443 C   0  0  0  0  0  0  0  0  0  0  0  0
   10.5188   -4.5509   26.1715 C   0  0  0  0  0  0  0  0  0  0  0  0
    6.9694    1.1438   21.7239 C   0  0  0  0  0  0  0  0  0  0  0  0
    9.7674   -4.0448   25.1232 C   0  0  0  0  0  0  0  0  0  0  0  0
    6.7002    0.7660   19.3913 C   0  0  0  0  0  0  0  0  0  0  0  0
    7.4269    0.5524   20.5573 C   0  0  0  0  0  0  0  0  0  0  0  0
    9.4201   -0.5356   21.6636 C   0  0  0  0  0  0  0  0  0  0  0  0
   13.6328   -1.7025   22.4238 C   0  0  0  0  0  0  0  0  0  0  0  0
   12.4722   -0.7125   22.6440 C   0  0  0  0  0  0  0  0  0  0  0  0
   12.7127   -2.4766   21.4592 C   0  0  0  0  0  0  0  0  0  0  0  0
   11.4970   -1.8241   22.1710 C   0  0  0  0  0  0  0  0  0  0  0  0
    7.1259    0.1639   18.0924 C   0  0  0  0  0  0  0  0  0  0  0  0
   10.0086   -5.2943   27.1789 N   0  0  0  0  0  0  0  0  0  0  0  0
    5.8611    1.9143   21.7978 N   0  0  0  0  0  0  0  0  0  0  0  0
    8.5987   -0.2395   20.5722 N   0  0  0  0  0  0  0  0  0  0  0  0
   10.4688   -1.3465   21.2513 N   0  0  0  0  0  0  0  0  0  0  0  0
    9.2659   -0.1539   22.8213 O   0  0  0  0  0  0  0  0  0  0  0  0
    6.7824   -5.3065   26.1363 H   0  0  0  0  0  0  0  0  0  0  0  0
    7.7682   -3.9468   24.3087 H   0  0  0  0  0  0  0  0  0  0  0  0
    4.9652    1.7386   18.5356 H   0  0  0  0  0  0  0  0  0  0  0  0
    8.2908   -6.1386   27.9468 H   0  0  0  0  0  0  0  0  0  0  0  0
    4.2947    2.7204   20.7256 H   0  0  0  0  0  0  0  0  0  0  0  0
   11.5881   -4.3721   26.2425 H   0  0  0  0  0  0  0  0  0  0  0  0
    7.4937    1.0146   22.6662 H   0  0  0  0  0  0  0  0  0  0  0  0
   14.5079   -1.2562   21.9368 H   0  0  0  0  0  0  0  0  0  0  0  0
   13.9625   -2.2524   23.3094 H   0  0  0  0  0  0  0  0  0  0  0  0
   12.3518   -0.4133   23.6936 H   0  0  0  0  0  0  0  0  0  0  0  0
   12.5145    0.1950   22.0326 H   0  0  0  0  0  0  0  0  0  0  0  0
   12.8462   -2.2374   20.3990 H   0  0  0  0  0  0  0  0  0  0  0  0
   12.7818   -3.5662   21.5761 H   0  0  0  0  0  0  0  0  0  0  0  0
    7.8008    0.8450   17.5613 H   0  0  0  0  0  0  0  0  0  0  0  0
    7.6439   -0.7903   18.2488 H   0  0  0  0  0  0  0  0  0  0  0  0
    6.2614   -0.0436   17.4497 H   0  0  0  0  0  0  0  0  0  0  0  0
    8.8722   -0.6403   19.6785 H   0  0  0  0  0  0  0  0  0  0  0  0
   10.5222   -1.6148   20.2829 H   0  0  0  0  0  0  0  0  0  0  0  0
  1  2  3  0  0  0  0
  1 10  1  0  0  0  0
  2 17  1  0  0  0  0
  3  4  2  0  0  0  0
  3  6  1  0  0  0  0
  3 24  1  0  0  0  0
  4 10  1  0  0  0  0
  4 25  1  0  0  0  0
  5  7  2  0  0  0  0
  5 11  1  0  0  0  0
  5 26  1  0  0  0  0
  6 19  2  0  0  0  0
  6 27  1  0  0  0  0
  7 20  1  0  0  0  0
  7 28  1  0  0  0  0
  8 10  2  0  0  0  0
  8 19  1  0  0  0  0
  8 29  1  0  0  0  0
  9 12  1  0  0  0  0
  9 20  2  0  0  0  0
  9 30  1  0  0  0  0
 11 12  2  0  0  0  0
 11 18  1  0  0  0  0
 12 21  1  0  0  0  0
 13 21  1  0  0  0  0
 13 22  1  0  0  0  0
 13 23  2  0  0  0  0
 14 15  1  0  0  0  0
 14 16  1  0  0  0  0
 14 31  1  0  0  0  0
 14 32  1  0  0  0  0
 15 17  1  0  0  0  0
 15 33  1  0  0  0  0
 15 34  1  0  0  0  0
 16 17  1  0  0  0  0
 16 35  1  0  0  0  0
 16 36  1  0  0  0  0
 17 22  1  0  0  0  0
 18 37  1  0  0  0  0
 18 38  1  0  0  0  0
 18 39  1  0  0  0  0
 21 40  1  0  0  0  0
 22 41  1  0  0  0  0
M  END
>  <Chemgauss4 Score>
-5.71706962585449

>  <Number of Confs>
5

$$$$
