ROB-UNI-b2e-5
 OpenBabel03242009303D

 50 51  0  0  0  0  0  0  0  0999 V2000
   12.0894   -1.2528   22.4278 C   0  0  0  0  0  0  0  0  0  0  0  0
   10.5714   -2.8916   23.4201 C   0  0  0  0  0  0  0  0  0  0  0  0
    9.6749   -0.8958   22.3663 C   0  0  0  0  0  0  0  0  0  0  0  0
    7.3407   -4.3043   24.3832 C   0  0  0  0  0  0  0  0  0  0  0  0
   10.7622   -1.6829   22.7407 C   0  0  0  0  0  0  0  0  0  0  0  0
    9.2606   -3.3093   23.7247 C   0  0  0  0  0  0  0  0  0  0  0  0
    8.3658   -1.2897   22.6575 C   0  0  0  0  0  0  0  0  0  0  0  0
    8.7095   -4.4439   24.3833 C   0  0  0  0  0  0  0  0  0  0  0  0
    8.1902   -2.5003   23.3371 C   0  0  0  0  0  0  0  0  0  0  0  0
    8.7714   -3.5711   27.5394 C   0  0  0  0  0  0  0  0  0  0  0  0
    7.7696   -3.4154   28.6351 C   0  0  0  0  0  0  0  0  0  0  0  0
    4.6804   -3.4158   24.4062 C   0  0  0  0  0  0  0  0  0  0  0  0
    5.9009    0.9110   17.9606 C   0  0  0  0  0  0  0  0  0  0  0  0
    7.2407   -0.4039   22.2321 C   0  0  0  0  0  0  0  0  0  0  0  0
    9.4617   -5.5734   24.9663 C   0  0  0  0  0  0  0  0  0  0  0  0
    5.6846   -2.6482   23.5637 C   0  0  0  0  0  0  0  0  0  0  0  0
    7.5324    0.3795   20.9474 C   0  0  0  0  0  0  0  0  0  0  0  0
   10.1340   -5.2511   26.3132 C   0  0  0  0  0  0  0  0  0  0  0  0
   13.1666   -0.9037   22.1738 N   0  0  0  0  0  0  0  0  0  0  0  0
    7.0371   -3.1291   23.7498 N   0  0  0  0  0  0  0  0  0  0  0  0
    9.1778   -4.8776   27.3208 N   0  0  0  0  0  0  0  0  0  0  0  0
    6.4426    1.2397   20.5714 N   0  0  0  0  0  0  0  0  0  0  0  0
    9.1554   -2.5817   26.9268 O   0  0  0  0  0  0  0  0  0  0  0  0
    4.0255    1.5217   19.6812 O   0  0  0  0  0  0  0  0  0  0  0  0
    5.0400   -0.7855   19.7456 O   0  0  0  0  0  0  0  0  0  0  0  0
    5.1755    0.6468   19.5625 S   0  0  0  0  0  0  0  0  0  0  0  0
   11.4194   -3.5058   23.7131 H   0  0  0  0  0  0  0  0  0  0  0  0
    9.8407    0.0431   21.8395 H   0  0  0  0  0  0  0  0  0  0  0  0
    6.5609   -4.9408   24.7807 H   0  0  0  0  0  0  0  0  0  0  0  0
    8.2421   -3.2493   29.6165 H   0  0  0  0  0  0  0  0  0  0  0  0
    7.1082   -2.5478   28.4799 H   0  0  0  0  0  0  0  0  0  0  0  0
    7.0932   -4.2728   28.7805 H   0  0  0  0  0  0  0  0  0  0  0  0
    4.6902   -4.4827   24.1592 H   0  0  0  0  0  0  0  0  0  0  0  0
    3.6694   -3.0346   24.2325 H   0  0  0  0  0  0  0  0  0  0  0  0
    4.9035   -3.3185   25.4738 H   0  0  0  0  0  0  0  0  0  0  0  0
    5.1931    0.5730   17.2021 H   0  0  0  0  0  0  0  0  0  0  0  0
    6.1042    1.9768   17.8462 H   0  0  0  0  0  0  0  0  0  0  0  0
    6.8266    0.3364   17.9029 H   0  0  0  0  0  0  0  0  0  0  0  0
    7.0185    0.3137   23.0387 H   0  0  0  0  0  0  0  0  0  0  0  0
    6.3157   -0.9899   22.1019 H   0  0  0  0  0  0  0  0  0  0  0  0
   10.2512   -5.9069   24.2642 H   0  0  0  0  0  0  0  0  0  0  0  0
    8.8140   -6.4636   25.0983 H   0  0  0  0  0  0  0  0  0  0  0  0
    5.6675   -1.5823   23.8179 H   0  0  0  0  0  0  0  0  0  0  0  0
    5.4400   -2.7325   22.4988 H   0  0  0  0  0  0  0  0  0  0  0  0
    8.4091    1.0209   21.0816 H   0  0  0  0  0  0  0  0  0  0  0  0
    7.7274   -0.2935   20.1059 H   0  0  0  0  0  0  0  0  0  0  0  0
   10.6760   -6.1201   26.6992 H   0  0  0  0  0  0  0  0  0  0  0  0
   10.8442   -4.4242   26.2093 H   0  0  0  0  0  0  0  0  0  0  0  0
    8.7787   -5.6116   27.9038 H   0  0  0  0  0  0  0  0  0  0  0  0
    6.6895    2.2412   20.4149 H   0  0  0  0  0  0  0  0  0  0  0  0
  1  5  1  0  0  0  0
  1 19  3  0  0  0  0
  2  5  2  0  0  0  0
  2  6  1  0  0  0  0
  2 27  1  0  0  0  0
  3  5  1  0  0  0  0
  3  7  2  0  0  0  0
  3 28  1  0  0  0  0
  4  8  2  0  0  0  0
  4 20  1  0  0  0  0
  4 29  1  0  0  0  0
  6  8  1  0  0  0  0
  6  9  2  0  0  0  0
  7  9  1  0  0  0  0
  7 14  1  0  0  0  0
  8 15  1  0  0  0  0
  9 20  1  0  0  0  0
 10 11  1  0  0  0  0
 10 21  1  0  0  0  0
 10 23  2  0  0  0  0
 11 30  1  0  0  0  0
 11 31  1  0  0  0  0
 11 32  1  0  0  0  0
 12 16  1  0  0  0  0
 12 33  1  0  0  0  0
 12 34  1  0  0  0  0
 12 35  1  0  0  0  0
 13 26  1  0  0  0  0
 13 36  1  0  0  0  0
 13 37  1  0  0  0  0
 13 38  1  0  0  0  0
 14 17  1  0  0  0  0
 14 39  1  0  0  0  0
 14 40  1  0  0  0  0
 15 18  1  0  0  0  0
 15 41  1  0  0  0  0
 15 42  1  0  0  0  0
 16 20  1  0  0  0  0
 16 43  1  0  0  0  0
 16 44  1  0  0  0  0
 17 22  1  0  0  0  0
 17 45  1  0  0  0  0
 17 46  1  0  0  0  0
 18 21  1  0  0  0  0
 18 47  1  0  0  0  0
 18 48  1  0  0  0  0
 21 49  1  0  0  0  0
 22 26  1  0  0  0  0
 22 50  1  0  0  0  0
 24 26  2  0  0  0  0
 25 26  2  0  0  0  0
M  END
>  <Chemgauss4 Score>
-6.38923215866089

>  <Number of Confs>
200

$$$$
