JOH-MSK-a63-1
 OpenBabel03242009303D

 34 35  0  0  0  0  0  0  0  0999 V2000
   11.0073   -2.5966   24.1691 C   0  0  0  0  0  0  0  0  0  0  0  0
    8.7948   -2.0814   22.4805 C   0  0  0  0  0  0  0  0  0  0  0  0
    8.3926   -5.1426   24.3735 C   0  0  0  0  0  0  0  0  0  0  0  0
    9.9206   -3.4931   24.1411 C   0  0  0  0  0  0  0  0  0  0  0  0
    9.6234   -4.7121   24.8125 C   0  0  0  0  0  0  0  0  0  0  0  0
    8.8416   -3.2154   23.2992 C   0  0  0  0  0  0  0  0  0  0  0  0
   10.9742   -1.4582   23.3556 C   0  0  0  0  0  0  0  0  0  0  0  0
    9.8840   -1.2065   22.5250 C   0  0  0  0  0  0  0  0  0  0  0  0
    8.2442   -3.7023   27.6061 C   0  0  0  0  0  0  0  0  0  0  0  0
    6.9363   -3.9030   28.2972 C   0  0  0  0  0  0  0  0  0  0  0  0
   13.0905   -0.8357   22.4670 C   0  0  0  0  0  0  0  0  0  0  0  0
   10.4751   -5.3998   25.8039 C   0  0  0  0  0  0  0  0  0  0  0  0
   10.4616   -4.7514   27.2002 C   0  0  0  0  0  0  0  0  0  0  0  0
    7.9291   -4.2335   23.4608 N   0  0  0  0  0  0  0  0  0  0  0  0
    9.1454   -4.7404   27.7801 N   0  0  0  0  0  0  0  0  0  0  0  0
    8.4335   -2.6809   26.9560 O   0  0  0  0  0  0  0  0  0  0  0  0
    9.8657   -0.0923   21.7369 O   0  0  0  0  0  0  0  0  0  0  0  0
   12.0292   -0.5936   23.3870 O   0  0  0  0  0  0  0  0  0  0  0  0
   11.8616   -2.7852   24.8136 H   0  0  0  0  0  0  0  0  0  0  0  0
    7.9433   -1.8894   21.8356 H   0  0  0  0  0  0  0  0  0  0  0  0
    7.8036   -6.0131   24.6268 H   0  0  0  0  0  0  0  0  0  0  0  0
    6.9365   -3.5003   29.3228 H   0  0  0  0  0  0  0  0  0  0  0  0
    6.1066   -3.3912   27.7836 H   0  0  0  0  0  0  0  0  0  0  0  0
    6.6122   -4.9512   28.3975 H   0  0  0  0  0  0  0  0  0  0  0  0
   13.8659   -0.0765   22.5960 H   0  0  0  0  0  0  0  0  0  0  0  0
   12.7026   -0.8057   21.4457 H   0  0  0  0  0  0  0  0  0  0  0  0
   13.5142   -1.8232   22.6649 H   0  0  0  0  0  0  0  0  0  0  0  0
   11.5252   -5.4241   25.4513 H   0  0  0  0  0  0  0  0  0  0  0  0
   10.1926   -6.4671   25.9068 H   0  0  0  0  0  0  0  0  0  0  0  0
   11.1074   -5.2993   27.8936 H   0  0  0  0  0  0  0  0  0  0  0  0
   10.8113   -3.7148   27.1547 H   0  0  0  0  0  0  0  0  0  0  0  0
    7.0454   -4.2988   22.9749 H   0  0  0  0  0  0  0  0  0  0  0  0
    8.8610   -5.5369   28.3480 H   0  0  0  0  0  0  0  0  0  0  0  0
    9.0448   -0.0623   21.2225 H   0  0  0  0  0  0  0  0  0  0  0  0
  1  4  2  0  0  0  0
  1  7  1  0  0  0  0
  1 19  1  0  0  0  0
  2  6  2  0  0  0  0
  2  8  1  0  0  0  0
  2 20  1  0  0  0  0
  3  5  2  0  0  0  0
  3 14  1  0  0  0  0
  3 21  1  0  0  0  0
  4  5  1  0  0  0  0
  4  6  1  0  0  0  0
  5 12  1  0  0  0  0
  6 14  1  0  0  0  0
  7  8  2  0  0  0  0
  7 18  1  0  0  0  0
  8 17  1  0  0  0  0
  9 10  1  0  0  0  0
  9 15  1  0  0  0  0
  9 16  2  0  0  0  0
 10 22  1  0  0  0  0
 10 23  1  0  0  0  0
 10 24  1  0  0  0  0
 11 18  1  0  0  0  0
 11 25  1  0  0  0  0
 11 26  1  0  0  0  0
 11 27  1  0  0  0  0
 12 13  1  0  0  0  0
 12 28  1  0  0  0  0
 12 29  1  0  0  0  0
 13 15  1  0  0  0  0
 13 30  1  0  0  0  0
 13 31  1  0  0  0  0
 14 32  1  0  0  0  0
 15 33  1  0  0  0  0
 17 34  1  0  0  0  0
M  END
>  <Chemgauss4 Score>
-4.78873443603516

>  <Number of Confs>
79

$$$$
