DAN-LON-a5f-3
 OpenBabel03242009303D

 35 37  0  0  1  0  0  0  0  0999 V2000
   12.4698   -1.2419   22.3089 C   0  0  0  0  0  0  0  0  0  0  0  0
   11.4158   -2.1504   22.4055 C   0  0  0  0  0  0  0  0  0  0  0  0
   12.6957   -0.3240   23.3346 C   0  0  0  0  0  0  0  0  0  0  0  0
   10.8135   -1.2231   24.5537 C   0  0  0  0  0  0  0  0  0  0  0  0
   10.5876   -2.1410   23.5279 C   0  0  0  0  0  0  0  0  0  0  0  0
   11.8676   -0.3146   24.4570 C   0  0  0  0  0  0  0  0  0  0  0  0
    8.1233   -5.2433   28.4287 C   0  0  0  0  0  0  0  0  0  0  0  0
   10.0402   -5.6372   25.4039 C   0  0  0  0  0  0  0  0  0  0  0  0
   10.0349   -4.0850   27.1927 C   0  0  0  0  0  0  0  0  0  0  0  0
    8.0379   -4.4454   25.1150 C   0  0  0  0  0  0  0  0  0  0  0  0
   10.3091   -4.1569   25.6761 C   0  0  2  0  0  0  0  0  0  0  0  0
    8.6346   -5.5605   25.9855 C   0  0  2  0  0  0  0  0  0  0  0  0
    9.4526   -3.1183   23.6307 C   0  0  0  0  0  0  0  0  0  0  0  0
    7.0081   -6.2369   28.2288 C   0  0  0  0  0  0  0  0  0  0  0  0
    8.8897   -4.9894   27.3125 N   0  0  0  0  0  0  0  0  0  0  0  0
    9.1640   -3.4759   25.0148 N   0  0  0  0  0  0  0  0  0  0  0  0
    8.3071   -4.7189   29.5277 O   0  0  0  0  0  0  0  0  0  0  0  0
   12.1461    0.8188   25.7217 Cl  0  0  0  0  0  0  0  0  0  0  0  0
    5.5839   -5.3110   27.7675 Cl  0  0  0  0  0  0  0  0  0  0  0  0
   13.1143   -1.2495   21.4346 H   0  0  0  0  0  0  0  0  0  0  0  0
   11.2471   -2.8619   21.6014 H   0  0  0  0  0  0  0  0  0  0  0  0
   13.5208    0.3784   23.2456 H   0  0  0  0  0  0  0  0  0  0  0  0
   10.1653   -1.2201   25.4270 H   0  0  0  0  0  0  0  0  0  0  0  0
   10.0622   -5.9084   24.3434 H   0  0  0  0  0  0  0  0  0  0  0  0
   10.7003   -6.3087   25.9640 H   0  0  0  0  0  0  0  0  0  0  0  0
   10.8633   -4.4924   27.7816 H   0  0  0  0  0  0  0  0  0  0  0  0
    9.7810   -3.0835   27.5534 H   0  0  0  0  0  0  0  0  0  0  0  0
    7.7462   -4.8481   24.1371 H   0  0  0  0  0  0  0  0  0  0  0  0
    7.1613   -3.9783   25.5756 H   0  0  0  0  0  0  0  0  0  0  0  0
   11.2971   -3.7822   25.3974 H   0  0  0  0  0  0  0  0  0  0  0  0
    8.0579   -6.4868   26.0126 H   0  0  0  0  0  0  0  0  0  0  0  0
    8.5403   -2.6979   23.1937 H   0  0  0  0  0  0  0  0  0  0  0  0
    9.6783   -4.0414   23.0865 H   0  0  0  0  0  0  0  0  0  0  0  0
    6.8272   -6.7562   29.1633 H   0  0  0  0  0  0  0  0  0  0  0  0
    7.2826   -6.9189   27.4318 H   0  0  0  0  0  0  0  0  0  0  0  0
  1  2  2  0  0  0  0
  1  3  1  0  0  0  0
  1 20  1  0  0  0  0
  2  5  1  0  0  0  0
  2 21  1  0  0  0  0
  3  6  2  0  0  0  0
  3 22  1  0  0  0  0
  4  5  2  0  0  0  0
  4  6  1  0  0  0  0
  4 23  1  0  0  0  0
  5 13  1  0  0  0  0
  6 18  1  0  0  0  0
  7 14  1  0  0  0  0
  7 15  1  0  0  0  0
  7 17  2  0  0  0  0
  8 11  1  0  0  0  0
  8 12  1  0  0  0  0
  8 24  1  0  0  0  0
  8 25  1  0  0  0  0
  9 11  1  0  0  0  0
  9 15  1  0  0  0  0
  9 26  1  0  0  0  0
  9 27  1  0  0  0  0
 10 12  1  0  0  0  0
 10 16  1  0  0  0  0
 10 28  1  0  0  0  0
 10 29  1  0  0  0  0
 11 16  1  0  0  0  0
 11 30  1  6  0  0  0
 12 15  1  0  0  0  0
 12 31  1  6  0  0  0
 13 16  1  0  0  0  0
 13 32  1  0  0  0  0
 13 33  1  0  0  0  0
 14 19  1  0  0  0  0
 14 34  1  0  0  0  0
 14 35  1  0  0  0  0
M  END
>  <Chemgauss4 Score>
-5.2915735244751

>  <Number of Confs>
78

$$$$
