DAR-DIA-fc9-6
 OpenBabel03242009303D

 34 36  0  0  0  0  0  0  0  0999 V2000
   13.2243    0.8699   22.0396 C   0  0  0  0  0  0  0  0  0  0  0  0
   13.4828   -0.5006   22.0534 C   0  0  0  0  0  0  0  0  0  0  0  0
   11.9622    1.3452   22.3961 C   0  0  0  0  0  0  0  0  0  0  0  0
    9.3008   -4.2610   28.2051 C   0  0  0  0  0  0  0  0  0  0  0  0
   12.4793   -1.3960   22.4234 C   0  0  0  0  0  0  0  0  0  0  0  0
   10.9587    0.4499   22.7662 C   0  0  0  0  0  0  0  0  0  0  0  0
    9.4876   -3.6247   26.9830 C   0  0  0  0  0  0  0  0  0  0  0  0
    8.6822   -5.5008   28.2029 C   0  0  0  0  0  0  0  0  0  0  0  0
    8.4488   -5.4799   25.9175 C   0  0  0  0  0  0  0  0  0  0  0  0
   11.2172   -0.9208   22.7798 C   0  0  0  0  0  0  0  0  0  0  0  0
    9.0562   -4.2391   25.8126 C   0  0  0  0  0  0  0  0  0  0  0  0
   10.3338   -2.7197   24.2753 C   0  0  0  0  0  0  0  0  0  0  0  0
    8.4443   -3.1912   22.1682 C   0  0  0  0  0  0  0  0  0  0  0  0
    8.9047   -1.7830   22.4485 C   0  0  0  0  0  0  0  0  0  0  0  0
    8.2310   -3.9061   23.4843 C   0  0  0  0  0  0  0  0  0  0  0  0
    8.2498   -6.1289   27.0867 N   0  0  0  0  0  0  0  0  0  0  0  0
   10.1798   -1.8468   23.1626 N   0  0  0  0  0  0  0  0  0  0  0  0
    9.2372   -3.5984   24.5179 N   0  0  0  0  0  0  0  0  0  0  0  0
   11.3377   -2.7010   24.9947 O   0  0  0  0  0  0  0  0  0  0  0  0
   14.0056    1.5675   21.7523 H   0  0  0  0  0  0  0  0  0  0  0  0
   14.4655   -0.8710   21.7767 H   0  0  0  0  0  0  0  0  0  0  0  0
   11.7615    2.4127   22.3863 H   0  0  0  0  0  0  0  0  0  0  0  0
    9.6292   -3.8008   29.1301 H   0  0  0  0  0  0  0  0  0  0  0  0
   12.6924   -2.4620   22.4305 H   0  0  0  0  0  0  0  0  0  0  0  0
    9.9789    0.8318   23.0421 H   0  0  0  0  0  0  0  0  0  0  0  0
    9.9701   -2.6513   26.9540 H   0  0  0  0  0  0  0  0  0  0  0  0
    8.5125   -6.0378   29.1303 H   0  0  0  0  0  0  0  0  0  0  0  0
    8.0911   -6.0095   25.0394 H   0  0  0  0  0  0  0  0  0  0  0  0
    7.5174   -3.1886   21.5737 H   0  0  0  0  0  0  0  0  0  0  0  0
    9.1999   -3.7233   21.5720 H   0  0  0  0  0  0  0  0  0  0  0  0
    9.0657   -1.2329   21.5263 H   0  0  0  0  0  0  0  0  0  0  0  0
    8.1726   -1.2681   23.0621 H   0  0  0  0  0  0  0  0  0  0  0  0
    7.2279   -3.6533   23.8837 H   0  0  0  0  0  0  0  0  0  0  0  0
    8.2431   -5.0057   23.3380 H   0  0  0  0  0  0  0  0  0  0  0  0
  1  2  1  0  0  0  0
  1  3  2  0  0  0  0
  1 20  1  0  0  0  0
  2  5  2  0  0  0  0
  2 21  1  0  0  0  0
  3  6  1  0  0  0  0
  3 22  1  0  0  0  0
  4  7  2  0  0  0  0
  4  8  1  0  0  0  0
  4 23  1  0  0  0  0
  5 10  1  0  0  0  0
  5 24  1  0  0  0  0
  6 10  2  0  0  0  0
  6 25  1  0  0  0  0
  7 11  1  0  0  0  0
  7 26  1  0  0  0  0
  8 16  2  0  0  0  0
  8 27  1  0  0  0  0
  9 11  2  0  0  0  0
  9 16  1  0  0  0  0
  9 28  1  0  0  0  0
 10 17  1  0  0  0  0
 11 18  1  0  0  0  0
 12 17  1  0  0  0  0
 12 18  1  0  0  0  0
 12 19  2  0  0  0  0
 13 14  1  0  0  0  0
 13 15  1  0  0  0  0
 13 29  1  0  0  0  0
 13 30  1  0  0  0  0
 14 17  1  0  0  0  0
 14 31  1  0  0  0  0
 14 32  1  0  0  0  0
 15 18  1  0  0  0  0
 15 33  1  0  0  0  0
 15 34  1  0  0  0  0
M  END
>  <Chemgauss4 Score>
-4.93463373184204

>  <Number of Confs>
12

$$$$
