HAR-NEW-972-1
 OpenBabel03242009303D

 45 47  0  0  1  0  0  0  0  0999 V2000
   10.0144   -2.6890   25.3120 C   0  0  0  0  0  0  0  0  0  0  0  0
   10.7331   -1.6836   24.6202 C   0  0  0  0  0  0  0  0  0  0  0  0
   10.1001   -3.8435   24.5615 C   0  0  0  0  0  0  0  0  0  0  0  0
   11.2367   -2.2623   23.4726 C   0  0  0  0  0  0  0  0  0  0  0  0
    8.3449   -4.7141   28.2958 C   0  0  0  0  0  0  0  0  0  0  0  0
   10.9814   -0.2588   24.9796 C   0  0  0  0  0  0  0  0  0  0  0  0
   12.0363   -1.5836   22.4207 C   0  0  0  0  0  0  0  0  0  0  0  0
   12.5489   -0.2308   22.9520 C   0  0  0  0  0  0  0  0  0  0  0  0
    7.0098   -4.8253   24.8428 C   0  0  0  0  0  0  0  0  0  0  0  0
    8.1841   -5.4260   24.0775 C   0  0  0  0  0  0  0  0  0  0  0  0
    6.9533   -5.3469   26.2735 C   0  0  0  0  0  0  0  0  0  0  0  0
    9.4223   -5.6559   26.2853 C   0  0  0  0  0  0  0  0  0  0  0  0
    9.5231   -5.2315   24.8076 C   0  0  2  0  0  0  0  0  0  0  0  0
   11.4935    0.5613   23.7669 C   0  0  1  0  0  0  0  0  0  0  0  0
    7.0607   -4.4057   29.0236 C   0  0  0  0  0  0  0  0  0  0  0  0
   10.3340    1.0269   22.8796 C   0  0  0  0  0  0  0  0  0  0  0  0
   10.8467   -3.5718   23.4419 N   0  0  0  0  0  0  0  0  0  0  0  0
    8.2277   -5.1580   26.9750 N   0  0  0  0  0  0  0  0  0  0  0  0
   10.7519    2.1277   22.0784 N   0  0  0  0  0  0  0  0  0  0  0  0
    9.4202   -4.5572   28.8803 O   0  0  0  0  0  0  0  0  0  0  0  0
    6.7264   -2.6989   28.7539 Cl  0  0  0  0  0  0  0  0  0  0  0  0
    9.4902   -2.5846   26.2523 H   0  0  0  0  0  0  0  0  0  0  0  0
   10.0410    0.1723   25.3538 H   0  0  0  0  0  0  0  0  0  0  0  0
   11.7104   -0.1981   25.8000 H   0  0  0  0  0  0  0  0  0  0  0  0
   12.8897   -2.2179   22.1544 H   0  0  0  0  0  0  0  0  0  0  0  0
   11.4418   -1.4252   21.5149 H   0  0  0  0  0  0  0  0  0  0  0  0
   13.4491   -0.4067   23.5645 H   0  0  0  0  0  0  0  0  0  0  0  0
   12.8805    0.3884   22.0991 H   0  0  0  0  0  0  0  0  0  0  0  0
    7.0955   -3.7327   24.8511 H   0  0  0  0  0  0  0  0  0  0  0  0
    6.0721   -5.0690   24.3278 H   0  0  0  0  0  0  0  0  0  0  0  0
    7.9995   -6.4998   23.9065 H   0  0  0  0  0  0  0  0  0  0  0  0
    8.2338   -4.9671   23.0744 H   0  0  0  0  0  0  0  0  0  0  0  0
    6.1858   -4.8087   26.8482 H   0  0  0  0  0  0  0  0  0  0  0  0
    6.6647   -6.4061   26.2698 H   0  0  0  0  0  0  0  0  0  0  0  0
    9.4983   -6.7593   26.3544 H   0  0  0  0  0  0  0  0  0  0  0  0
   10.2979   -5.2787   26.8575 H   0  0  0  0  0  0  0  0  0  0  0  0
   10.2587   -5.9519   24.3092 H   0  0  0  0  0  0  0  0  0  0  0  0
   11.9970    1.4688   24.1600 H   0  0  0  0  0  0  0  0  0  0  0  0
    7.2024   -4.5945   30.0816 H   0  0  0  0  0  0  0  0  0  0  0  0
    6.2655   -5.0117   28.6050 H   0  0  0  0  0  0  0  0  0  0  0  0
   10.0478    0.1835   22.2535 H   0  0  0  0  0  0  0  0  0  0  0  0
    9.5198    1.3204   23.5401 H   0  0  0  0  0  0  0  0  0  0  0  0
   11.0741   -4.2353   22.7137 H   0  0  0  0  0  0  0  0  0  0  0  0
   10.1663    2.9251   22.2521 H   0  0  0  0  0  0  0  0  0  0  0  0
   11.7021    2.3718   22.2938 H   0  0  0  0  0  0  0  0  0  0  0  0
  1  2  1  0  0  0  0
  1  3  2  0  0  0  0
  1 22  1  0  0  0  0
  2  4  2  0  0  0  0
  2  6  1  0  0  0  0
  3 13  1  0  0  0  0
  3 17  1  0  0  0  0
  4  7  1  0  0  0  0
  4 17  1  0  0  0  0
  5 15  1  0  0  0  0
  5 18  1  0  0  0  0
  5 20  2  0  0  0  0
  6 14  1  0  0  0  0
  6 23  1  0  0  0  0
  6 24  1  0  0  0  0
  7  8  1  0  0  0  0
  7 25  1  0  0  0  0
  7 26  1  0  0  0  0
  8 14  1  0  0  0  0
  8 27  1  0  0  0  0
  8 28  1  0  0  0  0
  9 10  1  0  0  0  0
  9 11  1  0  0  0  0
  9 29  1  0  0  0  0
  9 30  1  0  0  0  0
 10 13  1  0  0  0  0
 10 31  1  0  0  0  0
 10 32  1  0  0  0  0
 11 18  1  0  0  0  0
 11 33  1  0  0  0  0
 11 34  1  0  0  0  0
 12 13  1  0  0  0  0
 12 18  1  0  0  0  0
 12 35  1  0  0  0  0
 12 36  1  0  0  0  0
 13 37  1  6  0  0  0
 14 16  1  0  0  0  0
 14 38  1  1  0  0  0
 15 21  1  0  0  0  0
 15 39  1  0  0  0  0
 15 40  1  0  0  0  0
 16 19  1  0  0  0  0
 16 41  1  0  0  0  0
 16 42  1  0  0  0  0
 17 43  1  0  0  0  0
 19 44  1  0  0  0  0
 19 45  1  0  0  0  0
M  END
>  <Chemgauss4 Score>
-5.24597072601318

>  <Number of Confs>
200

$$$$
