ANT-DIA-045-5
 OpenBabel03242009303D

 38 40  0  0  1  0  0  0  0  0999 V2000
    6.2086   -3.8771   26.7587 C   0  0  0  0  0  0  0  0  0  0  0  0
    6.3611   -3.4504   25.4442 C   0  0  0  0  0  0  0  0  0  0  0  0
   10.2196   -3.3701   25.8419 C   0  0  0  0  0  0  0  0  0  0  0  0
    6.6677   -5.1424   27.0873 C   0  0  0  0  0  0  0  0  0  0  0  0
    7.3852   -5.5370   24.9408 C   0  0  0  0  0  0  0  0  0  0  0  0
   10.1019   -4.5869   26.4768 C   0  0  0  0  0  0  0  0  0  0  0  0
   11.5706   -4.7108   24.5078 C   0  0  0  0  0  0  0  0  0  0  0  0
   11.0703   -3.4418   24.7012 C   0  0  0  0  0  0  0  0  0  0  0  0
    6.9596   -4.2903   24.5116 C   0  0  0  0  0  0  0  0  0  0  0  0
    9.0043   -2.2197   22.9490 C   0  0  0  0  0  0  0  0  0  0  0  0
   11.4541    0.0697   23.2388 C   0  0  0  0  0  0  0  0  0  0  0  0
   11.3737   -0.8634   24.4393 C   0  0  0  0  0  0  0  0  0  0  0  0
   10.7315   -0.6521   22.0998 C   0  0  0  0  0  0  0  0  0  0  0  0
   11.3866   -2.2612   23.8089 C   0  0  2  0  0  0  0  0  0  0  0  0
   10.4583   -2.0782   22.5921 C   0  0  1  0  0  0  0  0  0  0  0  0
    7.1392   -3.8585   23.0849 C   0  0  0  0  0  0  0  0  0  0  0  0
    7.2542   -5.9864   26.2090 N   0  0  0  0  0  0  0  0  0  0  0  0
    8.5096   -3.5009   22.7965 N   0  0  0  0  0  0  0  0  0  0  0  0
    8.3788   -1.2392   23.3353 O   0  0  0  0  0  0  0  0  0  0  0  0
   11.0146   -5.8089   25.6983 S   0  0  0  0  0  0  0  0  0  0  0  0
    5.7453   -3.2392   27.5027 H   0  0  0  0  0  0  0  0  0  0  0  0
    6.0112   -2.4629   25.1558 H   0  0  0  0  0  0  0  0  0  0  0  0
    9.7178   -2.4735   26.1833 H   0  0  0  0  0  0  0  0  0  0  0  0
    6.5718   -5.5218   28.0993 H   0  0  0  0  0  0  0  0  0  0  0  0
    7.8593   -6.2355   24.2581 H   0  0  0  0  0  0  0  0  0  0  0  0
    9.5242   -4.8167   27.3610 H   0  0  0  0  0  0  0  0  0  0  0  0
   12.2369   -5.0494   23.7265 H   0  0  0  0  0  0  0  0  0  0  0  0
   11.0102    1.0468   23.4528 H   0  0  0  0  0  0  0  0  0  0  0  0
   12.5022    0.2366   22.9631 H   0  0  0  0  0  0  0  0  0  0  0  0
   12.2099   -0.7125   25.1300 H   0  0  0  0  0  0  0  0  0  0  0  0
   10.4471   -0.6850   24.9994 H   0  0  0  0  0  0  0  0  0  0  0  0
    9.8148   -0.1203   21.8208 H   0  0  0  0  0  0  0  0  0  0  0  0
   11.3762   -0.6706   21.2133 H   0  0  0  0  0  0  0  0  0  0  0  0
   12.4215   -2.4466   23.4031 H   0  0  0  0  0  0  0  0  0  0  0  0
   10.6704   -2.8186   21.8164 H   0  0  0  0  0  0  0  0  0  0  0  0
    6.8487   -4.6617   22.3989 H   0  0  0  0  0  0  0  0  0  0  0  0
    6.5114   -2.9913   22.8547 H   0  0  0  0  0  0  0  0  0  0  0  0
    9.1392   -4.2260   22.4659 H   0  0  0  0  0  0  0  0  0  0  0  0
  1  2  2  0  0  0  0
  1  4  1  0  0  0  0
  1 21  1  0  0  0  0
  2  9  1  0  0  0  0
  2 22  1  0  0  0  0
  3  6  2  0  0  0  0
  3  8  1  0  0  0  0
  3 23  1  0  0  0  0
  4 17  2  0  0  0  0
  4 24  1  0  0  0  0
  5  9  2  0  0  0  0
  5 17  1  0  0  0  0
  5 25  1  0  0  0  0
  6 20  1  0  0  0  0
  6 26  1  0  0  0  0
  7  8  2  0  0  0  0
  7 20  1  0  0  0  0
  7 27  1  0  0  0  0
  8 14  1  0  0  0  0
  9 16  1  0  0  0  0
 10 15  1  0  0  0  0
 10 18  1  0  0  0  0
 10 19  2  0  0  0  0
 11 12  1  0  0  0  0
 11 13  1  0  0  0  0
 11 28  1  0  0  0  0
 11 29  1  0  0  0  0
 12 14  1  0  0  0  0
 12 30  1  0  0  0  0
 12 31  1  0  0  0  0
 13 15  1  0  0  0  0
 13 32  1  0  0  0  0
 13 33  1  0  0  0  0
 14 15  1  0  0  0  0
 14 34  1  6  0  0  0
 15 35  1  6  0  0  0
 16 18  1  0  0  0  0
 16 36  1  0  0  0  0
 16 37  1  0  0  0  0
 18 38  1  0  0  0  0
M  END
>  <Chemgauss4 Score>
-5.572434425354

>  <Number of Confs>
200

$$$$
