DAN-LON-a5f-10
 OpenBabel03242009303D

 38 39  0  0  1  0  0  0  0  0999 V2000
   10.9369    0.0274   24.3810 C   0  0  0  0  0  0  0  0  0  0  0  0
    9.9684   -0.9715   24.2814 C   0  0  0  0  0  0  0  0  0  0  0  0
   12.0572   -0.0020   23.5504 C   0  0  0  0  0  0  0  0  0  0  0  0
   11.2406   -2.0293   22.5207 C   0  0  0  0  0  0  0  0  0  0  0  0
   10.1203   -1.9998   23.3513 C   0  0  0  0  0  0  0  0  0  0  0  0
   12.2090   -1.0304   22.6203 C   0  0  0  0  0  0  0  0  0  0  0  0
    9.7014   -5.3161   25.1272 C   0  0  0  0  0  0  0  0  0  0  0  0
    6.3135   -3.6666   27.9303 C   0  0  0  0  0  0  0  0  0  0  0  0
    6.5666   -4.5874   25.6550 C   0  0  0  0  0  0  0  0  0  0  0  0
    7.1321   -3.9984   24.3590 C   0  0  0  0  0  0  0  0  0  0  0  0
    8.6113   -3.9213   26.9089 C   0  0  0  0  0  0  0  0  0  0  0  0
    9.2909   -3.9307   25.5333 C   0  0  2  0  0  0  0  0  0  0  0  0
    9.0780   -3.0753   23.2455 C   0  0  0  0  0  0  0  0  0  0  0  0
    6.9855   -3.0379   29.1268 C   0  0  0  0  0  0  0  0  0  0  0  0
    7.1439   -3.9859   26.8525 N   0  0  0  0  0  0  0  0  0  0  0  0
    8.4230   -3.3277   24.5230 N   0  0  0  0  0  0  0  0  0  0  0  0
   10.9433   -5.6840   25.5882 N   0  0  0  0  0  0  0  0  0  0  0  0
    8.9714   -6.0436   24.4584 O   0  0  0  0  0  0  0  0  0  0  0  0
    5.0954   -3.8587   27.9501 O   0  0  0  0  0  0  0  0  0  0  0  0
   13.5920   -1.0668   21.5967 Cl  0  0  0  0  0  0  0  0  0  0  0  0
    6.9784   -1.2994   28.8526 Cl  0  0  0  0  0  0  0  0  0  0  0  0
   10.8184    0.8279   25.1055 H   0  0  0  0  0  0  0  0  0  0  0  0
    9.0988   -0.9406   24.9326 H   0  0  0  0  0  0  0  0  0  0  0  0
   12.8042    0.7830   23.6393 H   0  0  0  0  0  0  0  0  0  0  0  0
   11.3541   -2.8329   21.7968 H   0  0  0  0  0  0  0  0  0  0  0  0
    5.4781   -4.4148   25.7047 H   0  0  0  0  0  0  0  0  0  0  0  0
    6.7035   -5.6774   25.6376 H   0  0  0  0  0  0  0  0  0  0  0  0
    7.1957   -4.7969   23.5914 H   0  0  0  0  0  0  0  0  0  0  0  0
    6.3888   -3.2755   23.9682 H   0  0  0  0  0  0  0  0  0  0  0  0
    9.0001   -4.7452   27.5307 H   0  0  0  0  0  0  0  0  0  0  0  0
    8.8591   -2.9879   27.4438 H   0  0  0  0  0  0  0  0  0  0  0  0
   10.2130   -3.3323   25.6099 H   0  0  0  0  0  0  0  0  0  0  0  0
    8.3062   -2.7950   22.5204 H   0  0  0  0  0  0  0  0  0  0  0  0
    9.5189   -4.0175   22.9033 H   0  0  0  0  0  0  0  0  0  0  0  0
    8.0050   -3.4009   29.1882 H   0  0  0  0  0  0  0  0  0  0  0  0
    6.4142   -3.2770   30.0164 H   0  0  0  0  0  0  0  0  0  0  0  0
   11.4716   -5.0214   26.1463 H   0  0  0  0  0  0  0  0  0  0  0  0
   11.3529   -6.5918   25.3928 H   0  0  0  0  0  0  0  0  0  0  0  0
  1  2  2  0  0  0  0
  1  3  1  0  0  0  0
  1 22  1  0  0  0  0
  2  5  1  0  0  0  0
  2 23  1  0  0  0  0
  3  6  2  0  0  0  0
  3 24  1  0  0  0  0
  4  5  2  0  0  0  0
  4  6  1  0  0  0  0
  4 25  1  0  0  0  0
  5 13  1  0  0  0  0
  6 20  1  0  0  0  0
  7 12  1  0  0  0  0
  7 17  1  0  0  0  0
  7 18  2  0  0  0  0
  8 14  1  0  0  0  0
  8 15  1  0  0  0  0
  8 19  2  0  0  0  0
  9 10  1  0  0  0  0
  9 15  1  0  0  0  0
  9 26  1  0  0  0  0
  9 27  1  0  0  0  0
 10 16  1  0  0  0  0
 10 28  1  0  0  0  0
 10 29  1  0  0  0  0
 11 12  1  0  0  0  0
 11 15  1  0  0  0  0
 11 30  1  0  0  0  0
 11 31  1  0  0  0  0
 12 16  1  0  0  0  0
 12 32  1  1  0  0  0
 13 16  1  0  0  0  0
 13 33  1  0  0  0  0
 13 34  1  0  0  0  0
 14 21  1  0  0  0  0
 14 35  1  0  0  0  0
 14 36  1  0  0  0  0
 17 37  1  0  0  0  0
 17 38  1  0  0  0  0
M  END
>  <Chemgauss4 Score>
-5.21210908889771

>  <Number of Confs>
185

$$$$
