ADA-UNI-f8e-6
 OpenBabel03242009303D

 40 42  0  0  1  0  0  0  0  0999 V2000
   13.3011   -0.5534   22.5731 C   0  0  0  0  0  0  0  0  0  0  0  0
   12.7197   -1.7144   22.0635 C   0  0  0  0  0  0  0  0  0  0  0  0
   12.5357    0.3377   23.3254 C   0  0  0  0  0  0  0  0  0  0  0  0
    8.1751   -5.6396   27.1320 C   0  0  0  0  0  0  0  0  0  0  0  0
   11.3729   -1.9843   22.3061 C   0  0  0  0  0  0  0  0  0  0  0  0
   11.1889    0.0678   23.5679 C   0  0  0  0  0  0  0  0  0  0  0  0
    8.3981   -4.7191   26.1139 C   0  0  0  0  0  0  0  0  0  0  0  0
    8.2080   -5.1814   28.4392 C   0  0  0  0  0  0  0  0  0  0  0  0
    8.6553   -3.0301   27.7684 C   0  0  0  0  0  0  0  0  0  0  0  0
   10.6074   -1.0932   23.0583 C   0  0  0  0  0  0  0  0  0  0  0  0
    8.6436   -3.3875   26.4297 C   0  0  0  0  0  0  0  0  0  0  0  0
    8.8920   -2.6366   24.0425 C   0  0  0  0  0  0  0  0  0  0  0  0
    8.1627   -0.9566   22.2520 C   0  0  0  0  0  0  0  0  0  0  0  0
    8.2413   -0.1846   23.5324 C   0  0  2  0  0  0  0  0  0  0  0  0
    9.1683   -1.3804   23.3168 C   0  0  2  0  0  0  0  0  0  0  0  0
    7.6325    1.6163   25.9432 C   0  0  0  0  0  0  0  0  0  0  0  0
    7.1036   -0.2239   24.4959 C   0  0  0  0  0  0  0  0  0  0  0  0
    8.4432   -3.8958   28.7849 N   0  0  0  0  0  0  0  0  0  0  0  0
    8.8743   -2.4278   25.4157 N   0  0  0  0  0  0  0  0  0  0  0  0
    7.5270    0.1620   25.8133 N   0  0  0  0  0  0  0  0  0  0  0  0
    8.7097   -3.6863   23.4343 O   0  0  0  0  0  0  0  0  0  0  0  0
   14.3498   -0.3434   22.3844 H   0  0  0  0  0  0  0  0  0  0  0  0
   13.3155   -2.4086   21.4778 H   0  0  0  0  0  0  0  0  0  0  0  0
   12.9886    1.2418   23.7220 H   0  0  0  0  0  0  0  0  0  0  0  0
    7.9818   -6.6827   26.9091 H   0  0  0  0  0  0  0  0  0  0  0  0
   10.9288   -2.8911   21.9042 H   0  0  0  0  0  0  0  0  0  0  0  0
   10.6011    0.7690   24.1547 H   0  0  0  0  0  0  0  0  0  0  0  0
    8.3783   -5.0500   25.0789 H   0  0  0  0  0  0  0  0  0  0  0  0
    8.0411   -5.8598   29.2693 H   0  0  0  0  0  0  0  0  0  0  0  0
    8.8411   -2.0058   28.0776 H   0  0  0  0  0  0  0  0  0  0  0  0
    7.2980   -1.5881   22.0803 H   0  0  0  0  0  0  0  0  0  0  0  0
    8.5288   -0.4739   21.3524 H   0  0  0  0  0  0  0  0  0  0  0  0
    8.6775    0.8081   23.4890 H   0  0  0  0  0  0  0  0  0  0  0  0
    8.3455    2.0007   25.1989 H   0  0  0  0  0  0  0  0  0  0  0  0
    6.6456    2.0719   25.7748 H   0  0  0  0  0  0  0  0  0  0  0  0
    7.9856    1.8694   26.9538 H   0  0  0  0  0  0  0  0  0  0  0  0
    6.3197    0.4674   24.1533 H   0  0  0  0  0  0  0  0  0  0  0  0
    6.7005   -1.2465   24.5331 H   0  0  0  0  0  0  0  0  0  0  0  0
    9.0447   -1.4794   25.7437 H   0  0  0  0  0  0  0  0  0  0  0  0
    6.8585   -0.1761   26.5150 H   0  0  0  0  0  0  0  0  0  0  0  0
  1  2  1  0  0  0  0
  1  3  2  0  0  0  0
  1 22  1  0  0  0  0
  2  5  2  0  0  0  0
  2 23  1  0  0  0  0
  3  6  1  0  0  0  0
  3 24  1  0  0  0  0
  4  7  2  0  0  0  0
  4  8  1  0  0  0  0
  4 25  1  0  0  0  0
  5 10  1  0  0  0  0
  5 26  1  0  0  0  0
  6 10  2  0  0  0  0
  6 27  1  0  0  0  0
  7 11  1  0  0  0  0
  7 28  1  0  0  0  0
  8 18  2  0  0  0  0
  8 29  1  0  0  0  0
  9 11  2  0  0  0  0
  9 18  1  0  0  0  0
  9 30  1  0  0  0  0
 10 15  1  0  0  0  0
 11 19  1  0  0  0  0
 12 19  1  0  0  0  0
 12 21  2  0  0  0  0
 13 14  1  0  0  0  0
 13 15  1  0  0  0  0
 13 31  1  0  0  0  0
 13 32  1  0  0  0  0
 14 15  1  0  0  0  0
 14 17  1  0  0  0  0
 14 33  1  6  0  0  0
 15 12  1  1  0  0  0
 16 20  1  0  0  0  0
 16 34  1  0  0  0  0
 16 35  1  0  0  0  0
 16 36  1  0  0  0  0
 17 20  1  0  0  0  0
 17 37  1  0  0  0  0
 17 38  1  0  0  0  0
 19 39  1  0  0  0  0
 20 40  1  0  0  0  0
M  END
>  <Chemgauss4 Score>
-4.7689151763916

>  <Number of Confs>
60

$$$$
