KIM-UNI-60f-2
 OpenBabel03242009303D

 26 27  0  0  0  0  0  0  0  0999 V2000
   11.5779   -0.9695   23.9976 C   0  0  0  0  0  0  0  0  0  0  0  0
   11.8688   -1.6756   22.8415 C   0  0  0  0  0  0  0  0  0  0  0  0
   10.7276   -3.5282   23.5790 C   0  0  0  0  0  0  0  0  0  0  0  0
   10.8206   -1.6051   24.9752 C   0  0  0  0  0  0  0  0  0  0  0  0
   10.3834   -2.9090   24.7697 C   0  0  0  0  0  0  0  0  0  0  0  0
    8.3390   -3.0655   26.1304 C   0  0  0  0  0  0  0  0  0  0  0  0
   10.1238   -4.8174   26.3075 C   0  0  0  0  0  0  0  0  0  0  0  0
    7.7120   -3.7298   27.3335 C   0  0  0  0  0  0  0  0  0  0  0  0
    7.8337   -5.2243   27.1851 C   0  0  0  0  0  0  0  0  0  0  0  0
   10.4927   -0.8675   26.2319 C   0  0  0  0  0  0  0  0  0  0  0  0
   11.4618   -2.9431   22.6061 N   0  0  0  0  0  0  0  0  0  0  0  0
    9.2247   -5.5720   27.0489 N   0  0  0  0  0  0  0  0  0  0  0  0
    9.5923   -3.6142   25.7562 N   0  0  0  0  0  0  0  0  0  0  0  0
    7.7492   -2.1412   25.5700 O   0  0  0  0  0  0  0  0  0  0  0  0
   11.2992   -5.1818   26.2117 O   0  0  0  0  0  0  0  0  0  0  0  0
   11.9344    0.0467   24.1271 H   0  0  0  0  0  0  0  0  0  0  0  0
   12.4565   -1.2249   22.0485 H   0  0  0  0  0  0  0  0  0  0  0  0
   10.4157   -4.5452   23.3601 H   0  0  0  0  0  0  0  0  0  0  0  0
    8.2377   -3.3998   28.2356 H   0  0  0  0  0  0  0  0  0  0  0  0
    6.6662   -3.4120   27.4098 H   0  0  0  0  0  0  0  0  0  0  0  0
    7.4458   -5.7500   28.0644 H   0  0  0  0  0  0  0  0  0  0  0  0
    7.3034   -5.5811   26.2974 H   0  0  0  0  0  0  0  0  0  0  0  0
    9.5487   -0.3225   26.1170 H   0  0  0  0  0  0  0  0  0  0  0  0
   10.3986   -1.5547   27.0817 H   0  0  0  0  0  0  0  0  0  0  0  0
   11.2821   -0.1498   26.4875 H   0  0  0  0  0  0  0  0  0  0  0  0
    9.5633   -6.4072   27.5165 H   0  0  0  0  0  0  0  0  0  0  0  0
  1  2  2  0  0  0  0
  1  4  1  0  0  0  0
  1 16  1  0  0  0  0
  2 11  1  0  0  0  0
  2 17  1  0  0  0  0
  3  5  1  0  0  0  0
  3 11  2  0  0  0  0
  3 18  1  0  0  0  0
  4  5  2  0  0  0  0
  4 10  1  0  0  0  0
  5 13  1  0  0  0  0
  6  8  1  0  0  0  0
  6 13  1  0  0  0  0
  6 14  2  0  0  0  0
  7 12  1  0  0  0  0
  7 13  1  0  0  0  0
  7 15  2  0  0  0  0
  8  9  1  0  0  0  0
  8 19  1  0  0  0  0
  8 20  1  0  0  0  0
  9 12  1  0  0  0  0
  9 21  1  0  0  0  0
  9 22  1  0  0  0  0
 10 23  1  0  0  0  0
 10 24  1  0  0  0  0
 10 25  1  0  0  0  0
 12 26  1  0  0  0  0
M  END
>  <Chemgauss4 Score>
-5.225182056427

>  <Number of Confs>
4

$$$$
