AGN-NEW-891-6
 OpenBabel03242009303D

 38 40  0  0  0  0  0  0  0  0999 V2000
   12.1363   -2.4731   23.4421 C   0  0  0  0  0  0  0  0  0  0  0  0
    7.2449   -5.1033   26.7077 C   0  0  0  0  0  0  0  0  0  0  0  0
    5.3844   -0.1826   19.4503 C   0  0  0  0  0  0  0  0  0  0  0  0
   11.2218   -3.2613   24.1408 C   0  0  0  0  0  0  0  0  0  0  0  0
    6.1403   -0.0276   20.6069 C   0  0  0  0  0  0  0  0  0  0  0  0
    8.6107   -5.3719   26.7980 C   0  0  0  0  0  0  0  0  0  0  0  0
    6.7927   -4.0466   25.9172 C   0  0  0  0  0  0  0  0  0  0  0  0
   11.8485   -1.1327   23.1850 C   0  0  0  0  0  0  0  0  0  0  0  0
    9.7315   -1.3686   24.3251 C   0  0  0  0  0  0  0  0  0  0  0  0
    6.0480   -0.1619   18.2342 C   0  0  0  0  0  0  0  0  0  0  0  0
    8.0855    0.1470   19.2498 C   0  0  0  0  0  0  0  0  0  0  0  0
   10.0194   -2.7090   24.5822 C   0  0  0  0  0  0  0  0  0  0  0  0
    9.0721   -3.5272   25.3075 C   0  0  0  0  0  0  0  0  0  0  0  0
    7.5173    0.1410   20.5135 C   0  0  0  0  0  0  0  0  0  0  0  0
    9.5243   -4.5839   26.0980 C   0  0  0  0  0  0  0  0  0  0  0  0
    7.7063   -3.2586   25.2172 C   0  0  0  0  0  0  0  0  0  0  0  0
   10.6461   -0.5805   23.6264 C   0  0  0  0  0  0  0  0  0  0  0  0
    8.3458    0.3082   21.7201 C   0  0  0  0  0  0  0  0  0  0  0  0
    9.4742    1.0264   21.7776 C   0  0  0  0  0  0  0  0  0  0  0  0
    7.3839   -0.0005   18.1036 N   0  0  0  0  0  0  0  0  0  0  0  0
    9.3420    1.5694   24.3108 O   0  0  0  0  0  0  0  0  0  0  0  0
   11.5546    1.7996   23.1400 O   0  0  0  0  0  0  0  0  0  0  0  0
   10.8340   -4.8554   26.1951 F   0  0  0  0  0  0  0  0  0  0  0  0
    7.2554   -2.2450   24.4635 F   0  0  0  0  0  0  0  0  0  0  0  0
   10.2876    1.0982   23.3062 S   0  0  0  0  0  0  0  0  0  0  0  0
   13.0728   -2.9030   23.0986 H   0  0  0  0  0  0  0  0  0  0  0  0
    6.5332   -5.7165   27.2524 H   0  0  0  0  0  0  0  0  0  0  0  0
    4.3098   -0.3156   19.4991 H   0  0  0  0  0  0  0  0  0  0  0  0
   11.4607   -4.3046   24.3330 H   0  0  0  0  0  0  0  0  0  0  0  0
    5.6428   -0.0402   21.5735 H   0  0  0  0  0  0  0  0  0  0  0  0
    8.9626   -6.1952   27.4130 H   0  0  0  0  0  0  0  0  0  0  0  0
    5.7295   -3.8369   25.8478 H   0  0  0  0  0  0  0  0  0  0  0  0
   12.5676   -0.5276   22.6398 H   0  0  0  0  0  0  0  0  0  0  0  0
    8.7948   -0.9329   24.6666 H   0  0  0  0  0  0  0  0  0  0  0  0
    5.5032   -0.2778   17.3031 H   0  0  0  0  0  0  0  0  0  0  0  0
    9.1551    0.2742   19.1086 H   0  0  0  0  0  0  0  0  0  0  0  0
    7.9740   -0.1880   22.6144 H   0  0  0  0  0  0  0  0  0  0  0  0
    9.8938    1.5637   20.9370 H   0  0  0  0  0  0  0  0  0  0  0  0
  1  4  1  0  0  0  0
  1  8  2  0  0  0  0
  1 26  1  0  0  0  0
  2  6  1  0  0  0  0
  2  7  2  0  0  0  0
  2 27  1  0  0  0  0
  3  5  2  0  0  0  0
  3 10  1  0  0  0  0
  3 28  1  0  0  0  0
  4 12  2  0  0  0  0
  4 29  1  0  0  0  0
  5 14  1  0  0  0  0
  5 30  1  0  0  0  0
  6 15  2  0  0  0  0
  6 31  1  0  0  0  0
  7 16  1  0  0  0  0
  7 32  1  0  0  0  0
  8 17  1  0  0  0  0
  8 33  1  0  0  0  0
  9 12  1  0  0  0  0
  9 17  2  0  0  0  0
  9 34  1  0  0  0  0
 10 20  2  0  0  0  0
 10 35  1  0  0  0  0
 11 14  2  0  0  0  0
 11 20  1  0  0  0  0
 11 36  1  0  0  0  0
 12 13  1  0  0  0  0
 13 15  1  0  0  0  0
 13 16  2  0  0  0  0
 14 18  1  0  0  0  0
 15 23  1  0  0  0  0
 16 24  1  0  0  0  0
 17 25  1  0  0  0  0
 18 19  2  0  0  0  0
 18 37  1  0  0  0  0
 19 25  1  0  0  0  0
 19 38  1  0  0  0  0
 21 25  2  0  0  0  0
 22 25  2  0  0  0  0
M  END
>  <Chemgauss4 Score>
-7.88927936553955

>  <Number of Confs>
122

$$$$
