ANT-DIA-3c7-1
 OpenBabel03242009303D

 33 35  0  0  0  0  0  0  0  0999 V2000
   10.9008   -0.2649   25.9100 C   0  0  0  0  0  0  0  0  0  0  0  0
   13.1388   -0.4596   22.9513 C   0  0  0  0  0  0  0  0  0  0  0  0
   12.2922   -1.0241   21.9973 C   0  0  0  0  0  0  0  0  0  0  0  0
    9.9352   -5.4783   25.1324 C   0  0  0  0  0  0  0  0  0  0  0  0
   12.6695   -0.2127   24.2414 C   0  0  0  0  0  0  0  0  0  0  0  0
    9.2197   -4.3882   24.6403 C   0  0  0  0  0  0  0  0  0  0  0  0
   10.9761   -1.3415   22.3334 C   0  0  0  0  0  0  0  0  0  0  0  0
    9.2491   -6.4752   25.8130 C   0  0  0  0  0  0  0  0  0  0  0  0
    5.6096   -4.0170   25.0519 C   0  0  0  0  0  0  0  0  0  0  0  0
   11.3535   -0.5301   24.5775 C   0  0  0  0  0  0  0  0  0  0  0  0
    7.8335   -4.3594   24.8625 C   0  0  0  0  0  0  0  0  0  0  0  0
    6.7703   -3.4731   24.5454 C   0  0  0  0  0  0  0  0  0  0  0  0
   10.5068   -1.0945   23.6235 C   0  0  0  0  0  0  0  0  0  0  0  0
    7.2745   -5.4259   25.5607 C   0  0  0  0  0  0  0  0  0  0  0  0
    8.2149   -1.9921   23.0883 C   0  0  0  0  0  0  0  0  0  0  0  0
    6.8776   -2.1982   23.8082 C   0  0  0  0  0  0  0  0  0  0  0  0
   10.5338   -0.0500   26.9898 N   0  0  0  0  0  0  0  0  0  0  0  0
    7.9180   -6.4998   26.0562 N   0  0  0  0  0  0  0  0  0  0  0  0
    5.9272   -5.2008   25.6658 N   0  0  0  0  0  0  0  0  0  0  0  0
    9.1667   -1.4276   23.9336 N   0  0  0  0  0  0  0  0  0  0  0  0
    8.3598   -2.3065   21.9113 O   0  0  0  0  0  0  0  0  0  0  0  0
   14.1635   -0.2126   22.6894 H   0  0  0  0  0  0  0  0  0  0  0  0
   12.6577   -1.2165   20.9928 H   0  0  0  0  0  0  0  0  0  0  0  0
   11.0079   -5.5454   24.9859 H   0  0  0  0  0  0  0  0  0  0  0  0
   13.3430    0.2277   24.9730 H   0  0  0  0  0  0  0  0  0  0  0  0
    9.7255   -3.5924   24.1032 H   0  0  0  0  0  0  0  0  0  0  0  0
   10.3264   -1.7811   21.5807 H   0  0  0  0  0  0  0  0  0  0  0  0
    9.7906   -7.3331   26.2029 H   0  0  0  0  0  0  0  0  0  0  0  0
    4.5860   -3.6692   25.0308 H   0  0  0  0  0  0  0  0  0  0  0  0
    6.0771   -2.1096   23.0477 H   0  0  0  0  0  0  0  0  0  0  0  0
    6.7303   -1.3345   24.4860 H   0  0  0  0  0  0  0  0  0  0  0  0
    5.2690   -5.8135   26.1269 H   0  0  0  0  0  0  0  0  0  0  0  0
    8.8633   -1.2317   24.8853 H   0  0  0  0  0  0  0  0  0  0  0  0
  1 10  1  0  0  0  0
  1 17  3  0  0  0  0
  2  3  1  0  0  0  0
  2  5  2  0  0  0  0
  2 22  1  0  0  0  0
  3  7  2  0  0  0  0
  3 23  1  0  0  0  0
  4  6  2  0  0  0  0
  4  8  1  0  0  0  0
  4 24  1  0  0  0  0
  5 10  1  0  0  0  0
  5 25  1  0  0  0  0
  6 11  1  0  0  0  0
  6 26  1  0  0  0  0
  7 13  1  0  0  0  0
  7 27  1  0  0  0  0
  8 18  2  0  0  0  0
  8 28  1  0  0  0  0
  9 12  2  0  0  0  0
  9 19  1  0  0  0  0
  9 29  1  0  0  0  0
 10 13  2  0  0  0  0
 11 12  1  0  0  0  0
 11 14  2  0  0  0  0
 12 16  1  0  0  0  0
 13 20  1  0  0  0  0
 14 18  1  0  0  0  0
 14 19  1  0  0  0  0
 15 16  1  0  0  0  0
 15 20  1  0  0  0  0
 15 21  2  0  0  0  0
 16 30  1  0  0  0  0
 16 31  1  0  0  0  0
 19 32  1  0  0  0  0
 20 33  1  0  0  0  0
M  END
>  <Chemgauss4 Score>
-4.579261302948

>  <Number of Confs>
55

$$$$
