CHR-SOS-b30-1
 OpenBabel03242009303D

 45 47  0  0  0  0  0  0  0  0999 V2000
   10.5357   -2.5273   23.9697 C   0  0  0  0  0  0  0  0  0  0  0  0
    9.5815   -3.1353   24.3729 C   0  0  0  0  0  0  0  0  0  0  0  0
   13.7156   -1.6545   22.2804 C   0  0  0  0  0  0  0  0  0  0  0  0
   13.7898   -0.3114   22.6324 C   0  0  0  0  0  0  0  0  0  0  0  0
    6.7438    1.8465   22.2873 C   0  0  0  0  0  0  0  0  0  0  0  0
   12.6395   -2.4221   22.7120 C   0  0  0  0  0  0  0  0  0  0  0  0
    6.7560    0.5460   22.7792 C   0  0  0  0  0  0  0  0  0  0  0  0
    7.6120    2.1568   21.2531 C   0  0  0  0  0  0  0  0  0  0  0  0
   12.7704    0.2122   23.4112 C   0  0  0  0  0  0  0  0  0  0  0  0
    8.4524    0.0193   21.1978 C   0  0  0  0  0  0  0  0  0  0  0  0
   11.6718   -1.8040   23.4874 C   0  0  0  0  0  0  0  0  0  0  0  0
    7.6237   -0.3911   22.2296 C   0  0  0  0  0  0  0  0  0  0  0  0
    6.8931   -2.2766   23.7307 C   0  0  0  0  0  0  0  0  0  0  0  0
    7.2709   -5.6579   27.0614 C   0  0  0  0  0  0  0  0  0  0  0  0
    7.6380   -6.2399   25.7010 C   0  0  0  0  0  0  0  0  0  0  0  0
    6.8619   -4.1932   26.9544 C   0  0  0  0  0  0  0  0  0  0  0  0
    8.7198   -5.4112   25.0047 C   0  0  0  0  0  0  0  0  0  0  0  0
    7.9400   -3.3542   26.2647 C   0  0  0  0  0  0  0  0  0  0  0  0
    8.3592   -3.9143   24.8882 C   0  0  0  0  0  0  0  0  0  0  0  0
    7.2581   -3.7344   23.9129 C   0  0  0  0  0  0  0  0  0  0  0  0
    8.4691    1.2736   20.6936 N   0  0  0  0  0  0  0  0  0  0  0  0
   11.7096   -0.5020   23.8494 N   0  0  0  0  0  0  0  0  0  0  0  0
    7.6592   -1.7221   22.7093 N   0  0  0  0  0  0  0  0  0  0  0  0
    6.0396   -1.7166   24.4106 O   0  0  0  0  0  0  0  0  0  0  0  0
   14.4951   -2.1022   21.6714 H   0  0  0  0  0  0  0  0  0  0  0  0
   14.6193    0.3061   22.3073 H   0  0  0  0  0  0  0  0  0  0  0  0
    6.0757    2.5935   22.7005 H   0  0  0  0  0  0  0  0  0  0  0  0
   12.5732   -3.4714   22.4426 H   0  0  0  0  0  0  0  0  0  0  0  0
    6.0857    0.2738   23.5903 H   0  0  0  0  0  0  0  0  0  0  0  0
    7.6416    3.1575   20.8348 H   0  0  0  0  0  0  0  0  0  0  0  0
   12.7816    1.2544   23.7129 H   0  0  0  0  0  0  0  0  0  0  0  0
    9.1512   -0.6665   20.7282 H   0  0  0  0  0  0  0  0  0  0  0  0
    6.4457   -6.2365   27.4952 H   0  0  0  0  0  0  0  0  0  0  0  0
    8.1214   -5.7544   27.7454 H   0  0  0  0  0  0  0  0  0  0  0  0
    7.9812   -7.2744   25.8240 H   0  0  0  0  0  0  0  0  0  0  0  0
    6.7442   -6.2792   25.0676 H   0  0  0  0  0  0  0  0  0  0  0  0
    5.9242   -4.1162   26.3920 H   0  0  0  0  0  0  0  0  0  0  0  0
    6.6611   -3.7933   27.9557 H   0  0  0  0  0  0  0  0  0  0  0  0
    9.6676   -5.5390   25.5442 H   0  0  0  0  0  0  0  0  0  0  0  0
    8.8755   -5.8276   24.0002 H   0  0  0  0  0  0  0  0  0  0  0  0
    7.5513   -2.3344   26.1399 H   0  0  0  0  0  0  0  0  0  0  0  0
    8.8094   -3.2758   26.9306 H   0  0  0  0  0  0  0  0  0  0  0  0
    6.3873   -4.2833   24.2701 H   0  0  0  0  0  0  0  0  0  0  0  0
    7.5723   -4.1510   22.9564 H   0  0  0  0  0  0  0  0  0  0  0  0
    8.3265   -2.3342   22.2444 H   0  0  0  0  0  0  0  0  0  0  0  0
  1  2  3  0  0  0  0
  1 11  1  0  0  0  0
  2 19  1  0  0  0  0
  3  4  1  0  0  0  0
  3  6  2  0  0  0  0
  3 25  1  0  0  0  0
  4  9  2  0  0  0  0
  4 26  1  0  0  0  0
  5  7  2  0  0  0  0
  5  8  1  0  0  0  0
  5 27  1  0  0  0  0
  6 11  1  0  0  0  0
  6 28  1  0  0  0  0
  7 12  1  0  0  0  0
  7 29  1  0  0  0  0
  8 21  2  0  0  0  0
  8 30  1  0  0  0  0
  9 22  1  0  0  0  0
  9 31  1  0  0  0  0
 10 12  2  0  0  0  0
 10 21  1  0  0  0  0
 10 32  1  0  0  0  0
 11 22  2  0  0  0  0
 12 23  1  0  0  0  0
 13 20  1  0  0  0  0
 13 23  1  0  0  0  0
 13 24  2  0  0  0  0
 14 15  1  0  0  0  0
 14 16  1  0  0  0  0
 14 33  1  0  0  0  0
 14 34  1  0  0  0  0
 15 17  1  0  0  0  0
 15 35  1  0  0  0  0
 15 36  1  0  0  0  0
 16 18  1  0  0  0  0
 16 37  1  0  0  0  0
 16 38  1  0  0  0  0
 17 19  1  0  0  0  0
 17 39  1  0  0  0  0
 17 40  1  0  0  0  0
 18 19  1  0  0  0  0
 18 41  1  0  0  0  0
 18 42  1  0  0  0  0
 19 20  1  0  0  0  0
 20 43  1  0  0  0  0
 20 44  1  0  0  0  0
 23 45  1  0  0  0  0
M  END
>  <Chemgauss4 Score>
-4.77472877502441

>  <Number of Confs>
78

$$$$
