DAR-DIA-43a-14
 OpenBabel03242009303D

 54 56  0  0  1  0  0  0  0  0999 V2000
    9.1472   -5.5955   26.6083 C   0  0  0  0  0  0  0  0  0  0  0  0
    8.2217    2.7686   23.0213 C   0  0  0  0  0  0  0  0  0  0  0  0
    9.9962   -4.9496   25.7097 C   0  0  0  0  0  0  0  0  0  0  0  0
    9.2584    2.0584   23.6165 C   0  0  0  0  0  0  0  0  0  0  0  0
    8.1298   -4.8824   27.2423 C   0  0  0  0  0  0  0  0  0  0  0  0
    8.8104   -2.8772   26.0791 C   0  0  0  0  0  0  0  0  0  0  0  0
    8.2206    2.8793   21.6402 C   0  0  0  0  0  0  0  0  0  0  0  0
   10.1564    1.6565   21.4512 C   0  0  0  0  0  0  0  0  0  0  0  0
    9.8278   -3.5904   25.4451 C   0  0  0  0  0  0  0  0  0  0  0  0
   10.2483    1.4887   22.8235 C   0  0  0  0  0  0  0  0  0  0  0  0
    7.9614   -3.5233   26.9778 C   0  0  0  0  0  0  0  0  0  0  0  0
   11.0215   -1.4341   24.7236 C   0  0  0  0  0  0  0  0  0  0  0  0
   11.0857   -0.7357   23.5834 C   0  0  0  0  0  0  0  0  0  0  0  0
    8.7831   -2.8913   22.8391 C   0  0  0  0  0  0  0  0  0  0  0  0
   10.8540   -1.6049   22.3845 C   0  0  0  0  0  0  0  0  0  0  0  0
   10.7499   -2.8901   24.4712 C   0  0  2  0  0  0  0  0  0  0  0  0
   10.2806   -2.8916   22.9974 C   0  0  1  0  0  0  0  0  0  0  0  0
    3.9817   -4.9410   25.2099 C   0  0  0  0  0  0  0  0  0  0  0  0
    4.2653   -6.0669   22.9933 C   0  0  0  0  0  0  0  0  0  0  0  0
   11.3855    0.7119   23.4388 C   0  0  0  0  0  0  0  0  0  0  0  0
    6.0912   -4.5341   23.9067 C   0  0  0  0  0  0  0  0  0  0  0  0
    6.8106   -4.3809   22.5687 C   0  0  0  0  0  0  0  0  0  0  0  0
    4.5775   -4.8093   23.8055 C   0  0  0  0  0  0  0  0  0  0  0  0
    9.1646    2.3396   20.8369 N   0  0  0  0  0  0  0  0  0  0  0  0
    8.2201   -4.1536   22.7256 N   0  0  0  0  0  0  0  0  0  0  0  0
    8.1775   -1.8261   22.8221 O   0  0  0  0  0  0  0  0  0  0  0  0
    6.7066   -2.6437   27.7611 Cl  0  0  0  0  0  0  0  0  0  0  0  0
    9.2788   -6.6539   26.8142 H   0  0  0  0  0  0  0  0  0  0  0  0
    7.4391    3.2210   23.6196 H   0  0  0  0  0  0  0  0  0  0  0  0
   10.7863   -5.5131   25.2204 H   0  0  0  0  0  0  0  0  0  0  0  0
    9.2867    1.9540   24.6977 H   0  0  0  0  0  0  0  0  0  0  0  0
    7.4757   -5.3989   27.9406 H   0  0  0  0  0  0  0  0  0  0  0  0
    8.6829   -1.8178   25.8691 H   0  0  0  0  0  0  0  0  0  0  0  0
    7.4340    3.4235   21.1279 H   0  0  0  0  0  0  0  0  0  0  0  0
   10.8996    1.2346   20.7817 H   0  0  0  0  0  0  0  0  0  0  0  0
   11.1904   -1.0136   25.7058 H   0  0  0  0  0  0  0  0  0  0  0  0
   10.1592   -1.1386   21.6777 H   0  0  0  0  0  0  0  0  0  0  0  0
   11.8055   -1.7917   21.8738 H   0  0  0  0  0  0  0  0  0  0  0  0
   11.7348   -3.4280   24.5335 H   0  0  0  0  0  0  0  0  0  0  0  0
   10.6568   -3.7784   22.4688 H   0  0  0  0  0  0  0  0  0  0  0  0
    4.4284   -5.7796   25.7547 H   0  0  0  0  0  0  0  0  0  0  0  0
    4.1515   -4.0289   25.7918 H   0  0  0  0  0  0  0  0  0  0  0  0
    2.9003   -5.1068   25.1601 H   0  0  0  0  0  0  0  0  0  0  0  0
    4.7297   -6.9528   23.4361 H   0  0  0  0  0  0  0  0  0  0  0  0
    4.6524   -5.9758   21.9725 H   0  0  0  0  0  0  0  0  0  0  0  0
    3.1860   -6.2413   22.9304 H   0  0  0  0  0  0  0  0  0  0  0  0
   12.2864    0.8435   22.8237 H   0  0  0  0  0  0  0  0  0  0  0  0
   11.6352    1.1348   24.4212 H   0  0  0  0  0  0  0  0  0  0  0  0
    6.2443   -3.6176   24.4918 H   0  0  0  0  0  0  0  0  0  0  0  0
    6.5714   -5.3464   24.4671 H   0  0  0  0  0  0  0  0  0  0  0  0
    6.6997   -5.2996   21.9834 H   0  0  0  0  0  0  0  0  0  0  0  0
    6.3998   -3.5603   21.9742 H   0  0  0  0  0  0  0  0  0  0  0  0
    4.0894   -3.9563   23.3183 H   0  0  0  0  0  0  0  0  0  0  0  0
    8.8395   -4.9632   22.7551 H   0  0  0  0  0  0  0  0  0  0  0  0
  1  3  2  0  0  0  0
  1  5  1  0  0  0  0
  1 28  1  0  0  0  0
  2  4  2  0  0  0  0
  2  7  1  0  0  0  0
  2 29  1  0  0  0  0
  3  9  1  0  0  0  0
  3 30  1  0  0  0  0
  4 10  1  0  0  0  0
  4 31  1  0  0  0  0
  5 11  2  0  0  0  0
  5 32  1  0  0  0  0
  6  9  2  0  0  0  0
  6 11  1  0  0  0  0
  6 33  1  0  0  0  0
  7 24  2  0  0  0  0
  7 34  1  0  0  0  0
  8 10  2  0  0  0  0
  8 24  1  0  0  0  0
  8 35  1  0  0  0  0
  9 16  1  0  0  0  0
 10 20  1  0  0  0  0
 11 27  1  0  0  0  0
 12 13  2  0  0  0  0
 12 16  1  0  0  0  0
 12 36  1  0  0  0  0
 13 15  1  0  0  0  0
 13 20  1  0  0  0  0
 14 17  1  0  0  0  0
 14 25  1  0  0  0  0
 14 26  2  0  0  0  0
 15 17  1  0  0  0  0
 15 37  1  0  0  0  0
 15 38  1  0  0  0  0
 16 17  1  0  0  0  0
 16 39  1  1  0  0  0
 17 40  1  6  0  0  0
 18 23  1  0  0  0  0
 18 41  1  0  0  0  0
 18 42  1  0  0  0  0
 18 43  1  0  0  0  0
 19 23  1  0  0  0  0
 19 44  1  0  0  0  0
 19 45  1  0  0  0  0
 19 46  1  0  0  0  0
 20 47  1  0  0  0  0
 20 48  1  0  0  0  0
 21 22  1  0  0  0  0
 21 23  1  0  0  0  0
 21 49  1  0  0  0  0
 21 50  1  0  0  0  0
 22 25  1  0  0  0  0
 22 51  1  0  0  0  0
 22 52  1  0  0  0  0
 23 53  1  0  0  0  0
 25 54  1  0  0  0  0
M  END
>  <Chemgauss4 Score>
-4.62428331375122

>  <Number of Confs>
200

$$$$
