BAR-COM-21d-1
 OpenBabel03242009303D

 47 49  0  0  1  0  0  0  0  0999 V2000
   13.4275   -1.8069   23.4775 C   0  0  0  0  0  0  0  0  0  0  0  0
    5.2304    0.2123   19.5303 C   0  0  0  0  0  0  0  0  0  0  0  0
   12.7732   -1.9962   24.6946 C   0  0  0  0  0  0  0  0  0  0  0  0
   12.6998   -1.4486   22.3427 C   0  0  0  0  0  0  0  0  0  0  0  0
    6.4671   -0.0848   20.0920 C   0  0  0  0  0  0  0  0  0  0  0  0
   10.6632   -1.4690   23.6423 C   0  0  0  0  0  0  0  0  0  0  0  0
    5.1894    0.5263   18.1814 C   0  0  0  0  0  0  0  0  0  0  0  0
    7.4614    0.2669   17.9604 C   0  0  0  0  0  0  0  0  0  0  0  0
   11.3910   -1.8273   24.7771 C   0  0  0  0  0  0  0  0  0  0  0  0
   11.3177   -1.2797   22.4251 C   0  0  0  0  0  0  0  0  0  0  0  0
    7.6089   -0.0591   19.2990 C   0  0  0  0  0  0  0  0  0  0  0  0
    9.1963   -0.7028   21.1659 C   0  0  0  0  0  0  0  0  0  0  0  0
    7.1883   -5.0976   26.3218 C   0  0  0  0  0  0  0  0  0  0  0  0
    7.3041   -5.6812   24.9420 C   0  0  0  0  0  0  0  0  0  0  0  0
    8.5477   -5.2595   25.6862 C   0  0  0  0  0  0  0  0  0  0  0  0
   10.6841   -2.0321   26.0932 C   0  0  0  0  0  0  0  0  0  0  0  0
   10.2092   -3.4742   26.3234 C   0  0  0  0  0  0  0  0  0  0  0  0
    9.2884   -4.0121   25.2211 C   0  0  1  0  0  0  0  0  0  0  0  0
    6.2770    0.5614   17.3791 N   0  0  0  0  0  0  0  0  0  0  0  0
   10.5902   -0.9206   21.2900 N   0  0  0  0  0  0  0  0  0  0  0  0
    8.8811   -0.3565   19.8421 N   0  0  0  0  0  0  0  0  0  0  0  0
    9.3904   -6.3511   26.2186 N   0  3  0  0  0  0  0  0  0  0  0  0
    8.3890   -0.8036   22.0842 O   0  0  0  0  0  0  0  0  0  0  0  0
   10.0696   -4.3409   24.0761 O   0  0  0  0  0  0  0  0  0  0  0  0
   14.5038   -1.9381   23.4133 H   0  0  0  0  0  0  0  0  0  0  0  0
    4.3272    0.1984   20.1295 H   0  0  0  0  0  0  0  0  0  0  0  0
   13.3485   -2.2759   25.5729 H   0  0  0  0  0  0  0  0  0  0  0  0
   13.2202   -1.3039   21.3993 H   0  0  0  0  0  0  0  0  0  0  0  0
    6.5297   -0.3348   21.1479 H   0  0  0  0  0  0  0  0  0  0  0  0
    9.5853   -1.3386   23.7089 H   0  0  0  0  0  0  0  0  0  0  0  0
    4.2493    0.7664   17.6959 H   0  0  0  0  0  0  0  0  0  0  0  0
    8.3157    0.3033   17.2908 H   0  0  0  0  0  0  0  0  0  0  0  0
    6.7732   -4.1007   26.4123 H   0  0  0  0  0  0  0  0  0  0  0  0
    6.9074   -5.7649   27.1282 H   0  0  0  0  0  0  0  0  0  0  0  0
    7.1001   -6.7390   24.8247 H   0  0  0  0  0  0  0  0  0  0  0  0
    6.9670   -5.0742   24.1100 H   0  0  0  0  0  0  0  0  0  0  0  0
   11.3262   -1.7094   26.9220 H   0  0  0  0  0  0  0  0  0  0  0  0
    9.8141   -1.3628   26.1203 H   0  0  0  0  0  0  0  0  0  0  0  0
    9.7054   -3.5536   27.2945 H   0  0  0  0  0  0  0  0  0  0  0  0
   11.1060   -4.1055   26.3745 H   0  0  0  0  0  0  0  0  0  0  0  0
    8.5588   -3.2500   24.9269 H   0  0  0  0  0  0  0  0  0  0  0  0
   11.1375   -0.7982   20.4315 H   0  0  0  0  0  0  0  0  0  0  0  0
    9.6584   -0.3129   19.1879 H   0  0  0  0  0  0  0  0  0  0  0  0
    8.8328   -7.0193   26.7647 H   0  0  0  0  0  0  0  0  0  0  0  0
   10.1280   -5.9850   26.8335 H   0  0  0  0  0  0  0  0  0  0  0  0
    9.8471   -6.8726   25.4601 H   0  0  0  0  0  0  0  0  0  0  0  0
   10.6894   -5.0335   24.3534 H   0  0  0  0  0  0  0  0  0  0  0  0
  1  3  2  0  0  0  0
  1  4  1  0  0  0  0
  1 25  1  0  0  0  0
  2  5  2  0  0  0  0
  2  7  1  0  0  0  0
  2 26  1  0  0  0  0
  3  9  1  0  0  0  0
  3 27  1  0  0  0  0
  4 10  2  0  0  0  0
  4 28  1  0  0  0  0
  5 11  1  0  0  0  0
  5 29  1  0  0  0  0
  6  9  2  0  0  0  0
  6 10  1  0  0  0  0
  6 30  1  0  0  0  0
  7 19  2  0  0  0  0
  7 31  1  0  0  0  0
  8 11  2  0  0  0  0
  8 19  1  0  0  0  0
  8 32  1  0  0  0  0
  9 16  1  0  0  0  0
 10 20  1  0  0  0  0
 11 21  1  0  0  0  0
 12 20  1  0  0  0  0
 12 21  1  0  0  0  0
 12 23  2  0  0  0  0
 13 14  1  0  0  0  0
 13 15  1  0  0  0  0
 13 33  1  0  0  0  0
 13 34  1  0  0  0  0
 14 15  1  0  0  0  0
 14 35  1  0  0  0  0
 14 36  1  0  0  0  0
 15 18  1  0  0  0  0
 15 22  1  0  0  0  0
 16 17  1  0  0  0  0
 16 37  1  0  0  0  0
 16 38  1  0  0  0  0
 17 18  1  0  0  0  0
 17 39  1  0  0  0  0
 17 40  1  0  0  0  0
 18 24  1  0  0  0  0
 18 41  1  6  0  0  0
 20 42  1  0  0  0  0
 21 43  1  0  0  0  0
 22 44  1  0  0  0  0
 22 45  1  0  0  0  0
 22 46  1  0  0  0  0
 24 47  1  0  0  0  0
M  CHG  1  22   1
M  END
>  <Chemgauss4 Score>
-5.61975526809692

>  <Number of Confs>
200

$$$$
