TRY-UNI-714-9
 OpenBabel03242009303D

 32 33  0  0  0  0  0  0  0  0999 V2000
    7.0402   -5.5117   28.6025 C   0  0  0  0  0  0  0  0  0  0  0  0
    7.8259   -4.9177   27.6149 C   0  0  0  0  0  0  0  0  0  0  0  0
    5.8405   -6.1347   28.2584 C   0  0  0  0  0  0  0  0  0  0  0  0
    6.2123   -5.5695   25.9391 C   0  0  0  0  0  0  0  0  0  0  0  0
   12.3279    0.0928   23.3315 C   0  0  0  0  0  0  0  0  0  0  0  0
   10.5637   -0.7449   24.5414 C   0  0  0  0  0  0  0  0  0  0  0  0
   11.5512   -2.1048   22.8587 C   0  0  0  0  0  0  0  0  0  0  0  0
    7.4120   -4.9466   26.2832 C   0  0  0  0  0  0  0  0  0  0  0  0
   12.4394   -1.0702   22.5867 C   0  0  0  0  0  0  0  0  0  0  0  0
   10.5923   -1.9471   23.8531 C   0  0  0  0  0  0  0  0  0  0  0  0
    5.4266   -6.1636   26.9267 C   0  0  0  0  0  0  0  0  0  0  0  0
    9.0664   -3.2380   25.4102 C   0  0  0  0  0  0  0  0  0  0  0  0
   11.6264   -3.3831   22.0841 C   0  0  0  0  0  0  0  0  0  0  0  0
   11.4097    0.2828   24.3053 N   0  0  0  0  0  0  0  0  0  0  0  0
   13.4265   -1.1820   21.5911 N   0  0  0  0  0  0  0  0  0  0  0  0
    8.1984   -4.3513   25.2965 N   0  0  0  0  0  0  0  0  0  0  0  0
    9.6662   -2.9689   24.1694 N   0  0  0  0  0  0  0  0  0  0  0  0
    9.2607   -2.6065   26.4439 O   0  0  0  0  0  0  0  0  0  0  0  0
    3.9464   -6.9322   26.5019 Cl  0  0  0  0  0  0  0  0  0  0  0  0
    7.3625   -5.4892   29.6396 H   0  0  0  0  0  0  0  0  0  0  0  0
    8.7590   -4.4350   27.8951 H   0  0  0  0  0  0  0  0  0  0  0  0
    5.2390   -6.5934   29.0388 H   0  0  0  0  0  0  0  0  0  0  0  0
    5.8927   -5.5905   24.8994 H   0  0  0  0  0  0  0  0  0  0  0  0
   12.9926    0.9356   23.1656 H   0  0  0  0  0  0  0  0  0  0  0  0
    9.8389   -0.5619   25.3291 H   0  0  0  0  0  0  0  0  0  0  0  0
   12.3020   -4.0864   22.5823 H   0  0  0  0  0  0  0  0  0  0  0  0
   10.6378   -3.8476   21.9948 H   0  0  0  0  0  0  0  0  0  0  0  0
   11.9914   -3.2052   21.0661 H   0  0  0  0  0  0  0  0  0  0  0  0
   14.0168   -0.3970   21.3934 H   0  0  0  0  0  0  0  0  0  0  0  0
   13.4655   -2.0100   21.0283 H   0  0  0  0  0  0  0  0  0  0  0  0
    8.1401   -4.7763   24.3650 H   0  0  0  0  0  0  0  0  0  0  0  0
    9.4069   -3.5797   23.3988 H   0  0  0  0  0  0  0  0  0  0  0  0
  1  2  2  0  0  0  0
  1  3  1  0  0  0  0
  1 20  1  0  0  0  0
  2  8  1  0  0  0  0
  2 21  1  0  0  0  0
  3 11  2  0  0  0  0
  3 22  1  0  0  0  0
  4  8  2  0  0  0  0
  4 11  1  0  0  0  0
  4 23  1  0  0  0  0
  5  9  2  0  0  0  0
  5 14  1  0  0  0  0
  5 24  1  0  0  0  0
  6 10  1  0  0  0  0
  6 14  2  0  0  0  0
  6 25  1  0  0  0  0
  7  9  1  0  0  0  0
  7 10  2  0  0  0  0
  7 13  1  0  0  0  0
  8 16  1  0  0  0  0
  9 15  1  0  0  0  0
 10 17  1  0  0  0  0
 11 19  1  0  0  0  0
 12 16  1  0  0  0  0
 12 17  1  0  0  0  0
 12 18  2  0  0  0  0
 13 26  1  0  0  0  0
 13 27  1  0  0  0  0
 13 28  1  0  0  0  0
 15 29  1  0  0  0  0
 15 30  1  0  0  0  0
 16 31  1  0  0  0  0
 17 32  1  0  0  0  0
M  END
>  <Chemgauss4 Score>
-4.52495574951172

>  <Number of Confs>
6

$$$$
