CHR-SOS-54d-5
 OpenBabel03242009303D

 46 48  0  0  0  0  0  0  0  0999 V2000
    9.5961   -2.8190   25.9360 C   0  0  0  0  0  0  0  0  0  0  0  0
   10.0900   -2.1680   25.0557 C   0  0  0  0  0  0  0  0  0  0  0  0
    4.9773   -3.9101   22.2192 C   0  0  0  0  0  0  0  0  0  0  0  0
    6.1324   -3.1434   22.3240 C   0  0  0  0  0  0  0  0  0  0  0  0
    9.2078   -3.2735   28.3127 C   0  0  0  0  0  0  0  0  0  0  0  0
    4.1470   -3.9867   23.3258 C   0  0  0  0  0  0  0  0  0  0  0  0
    8.5846   -4.0990   29.2262 C   0  0  0  0  0  0  0  0  0  0  0  0
    5.5231   -2.6260   24.5640 C   0  0  0  0  0  0  0  0  0  0  0  0
    9.0066   -3.5924   26.9853 C   0  0  0  0  0  0  0  0  0  0  0  0
    6.4179   -2.4858   23.5154 C   0  0  0  0  0  0  0  0  0  0  0  0
    7.7016   -5.3638   27.5565 C   0  0  0  0  0  0  0  0  0  0  0  0
    8.5693   -1.4656   22.6953 C   0  0  0  0  0  0  0  0  0  0  0  0
   13.2494   -0.6121   22.5009 C   0  0  0  0  0  0  0  0  0  0  0  0
   12.5940    0.3626   23.4728 C   0  0  0  0  0  0  0  0  0  0  0  0
   12.2244   -1.5392   21.8576 C   0  0  0  0  0  0  0  0  0  0  0  0
   11.7641   -0.3669   24.5316 C   0  0  0  0  0  0  0  0  0  0  0  0
   11.3928   -2.2785   22.9083 C   0  0  0  0  0  0  0  0  0  0  0  0
   10.7218   -1.3334   23.9285 C   0  0  0  0  0  0  0  0  0  0  0  0
    9.6410   -0.5634   23.2690 C   0  0  0  0  0  0  0  0  0  0  0  0
    4.3910   -3.3622   24.4997 N   0  0  0  0  0  0  0  0  0  0  0  0
    7.8214   -5.1569   28.8818 N   0  0  0  0  0  0  0  0  0  0  0  0
    8.2568   -4.6344   26.5700 N   0  0  0  0  0  0  0  0  0  0  0  0
    6.9096   -6.4631   27.1588 N   0  0  0  0  0  0  0  0  0  0  0  0
    7.5858   -1.6984   23.6524 N   0  0  0  0  0  0  0  0  0  0  0  0
    8.6112   -1.8989   21.5486 O   0  0  0  0  0  0  0  0  0  0  0  0
    4.7346   -4.4314   21.3002 H   0  0  0  0  0  0  0  0  0  0  0  0
    6.8025   -3.0650   21.4720 H   0  0  0  0  0  0  0  0  0  0  0  0
    9.8129   -2.4338   28.6307 H   0  0  0  0  0  0  0  0  0  0  0  0
    3.2343   -4.5727   23.2953 H   0  0  0  0  0  0  0  0  0  0  0  0
    8.6855   -3.9272   30.2925 H   0  0  0  0  0  0  0  0  0  0  0  0
    5.6912   -2.1368   25.5188 H   0  0  0  0  0  0  0  0  0  0  0  0
   13.7745   -0.0497   21.7187 H   0  0  0  0  0  0  0  0  0  0  0  0
   14.0048   -1.2061   23.0274 H   0  0  0  0  0  0  0  0  0  0  0  0
   13.3655    0.9727   23.9581 H   0  0  0  0  0  0  0  0  0  0  0  0
   11.9502    1.0544   22.9175 H   0  0  0  0  0  0  0  0  0  0  0  0
   11.5595   -0.9554   21.2106 H   0  0  0  0  0  0  0  0  0  0  0  0
   12.7368   -2.2617   21.2108 H   0  0  0  0  0  0  0  0  0  0  0  0
   12.4429   -0.9040   25.2072 H   0  0  0  0  0  0  0  0  0  0  0  0
   11.2504    0.3877   25.1426 H   0  0  0  0  0  0  0  0  0  0  0  0
   10.6200   -2.8585   22.3859 H   0  0  0  0  0  0  0  0  0  0  0  0
   12.0345   -3.0070   23.4210 H   0  0  0  0  0  0  0  0  0  0  0  0
   10.0798    0.0313   22.4684 H   0  0  0  0  0  0  0  0  0  0  0  0
    9.1952    0.1056   24.0044 H   0  0  0  0  0  0  0  0  0  0  0  0
    6.5180   -7.0588   27.8589 H   0  0  0  0  0  0  0  0  0  0  0  0
    6.8330   -6.6804   26.1866 H   0  0  0  0  0  0  0  0  0  0  0  0
    7.7084   -1.2567   24.5613 H   0  0  0  0  0  0  0  0  0  0  0  0
  1  2  3  0  0  0  0
  1  9  1  0  0  0  0
  2 18  1  0  0  0  0
  3  4  2  0  0  0  0
  3  6  1  0  0  0  0
  3 26  1  0  0  0  0
  4 10  1  0  0  0  0
  4 27  1  0  0  0  0
  5  7  1  0  0  0  0
  5  9  2  0  0  0  0
  5 28  1  0  0  0  0
  6 20  2  0  0  0  0
  6 29  1  0  0  0  0
  7 21  2  0  0  0  0
  7 30  1  0  0  0  0
  8 10  2  0  0  0  0
  8 20  1  0  0  0  0
  8 31  1  0  0  0  0
  9 22  1  0  0  0  0
 10 24  1  0  0  0  0
 11 21  1  0  0  0  0
 11 22  2  0  0  0  0
 11 23  1  0  0  0  0
 12 19  1  0  0  0  0
 12 24  1  0  0  0  0
 12 25  2  0  0  0  0
 13 14  1  0  0  0  0
 13 15  1  0  0  0  0
 13 32  1  0  0  0  0
 13 33  1  0  0  0  0
 14 16  1  0  0  0  0
 14 34  1  0  0  0  0
 14 35  1  0  0  0  0
 15 17  1  0  0  0  0
 15 36  1  0  0  0  0
 15 37  1  0  0  0  0
 16 18  1  0  0  0  0
 16 38  1  0  0  0  0
 16 39  1  0  0  0  0
 17 18  1  0  0  0  0
 17 40  1  0  0  0  0
 17 41  1  0  0  0  0
 18 19  1  0  0  0  0
 19 42  1  0  0  0  0
 19 43  1  0  0  0  0
 23 44  1  0  0  0  0
 23 45  1  0  0  0  0
 24 46  1  0  0  0  0
M  END
>  <Chemgauss4 Score>
-4.70822381973267

>  <Number of Confs>
76

$$$$
