TRY-UNI-1fd-9
 OpenBabel03242009303D

 34 36  0  0  0  0  0  0  0  0999 V2000
   10.2494   -4.7043   25.7508 C   0  0  0  0  0  0  0  0  0  0  0  0
    9.5010   -3.5560   25.4988 C   0  0  0  0  0  0  0  0  0  0  0  0
   13.3400   -0.6828   22.9525 C   0  0  0  0  0  0  0  0  0  0  0  0
   11.1710   -0.7727   21.9173 C   0  0  0  0  0  0  0  0  0  0  0  0
    9.5813   -5.8963   25.9967 C   0  0  0  0  0  0  0  0  0  0  0  0
   12.8370    0.2942   23.7966 C   0  0  0  0  0  0  0  0  0  0  0  0
    5.8490   -3.5213   25.4519 C   0  0  0  0  0  0  0  0  0  0  0  0
    8.1014   -3.6704   25.5080 C   0  0  0  0  0  0  0  0  0  0  0  0
    7.0070   -2.7877   25.3087 C   0  0  0  0  0  0  0  0  0  0  0  0
   12.4846   -1.2213   21.9977 C   0  0  0  0  0  0  0  0  0  0  0  0
   10.7651    0.2081   22.8078 C   0  0  0  0  0  0  0  0  0  0  0  0
    7.5633   -4.9271   25.7691 C   0  0  0  0  0  0  0  0  0  0  0  0
    7.8606   -1.0106   23.7306 C   0  0  0  0  0  0  0  0  0  0  0  0
    7.0842   -1.3450   25.0039 C   0  0  0  0  0  0  0  0  0  0  0  0
    9.3532    0.7156   22.7497 C   0  0  0  0  0  0  0  0  0  0  0  0
   11.5671    0.7552   23.7486 N   0  0  0  0  0  0  0  0  0  0  0  0
    8.2387   -6.0650   26.0181 N   0  0  0  0  0  0  0  0  0  0  0  0
    6.1982   -4.8171   25.7313 N   0  0  0  0  0  0  0  0  0  0  0  0
    8.5460    0.1922   23.8267 N   0  0  0  0  0  0  0  0  0  0  0  0
    7.8626   -1.7457   22.7465 O   0  0  0  0  0  0  0  0  0  0  0  0
   13.0505   -2.4366   20.9201 Cl  0  0  0  0  0  0  0  0  0  0  0  0
   11.3335   -4.6661   25.7546 H   0  0  0  0  0  0  0  0  0  0  0  0
    9.9921   -2.6085   25.3022 H   0  0  0  0  0  0  0  0  0  0  0  0
   14.3708   -1.0087   23.0445 H   0  0  0  0  0  0  0  0  0  0  0  0
   10.4818   -1.1758   21.1817 H   0  0  0  0  0  0  0  0  0  0  0  0
   10.1488   -6.8020   26.1942 H   0  0  0  0  0  0  0  0  0  0  0  0
   13.4638    0.7457   24.5585 H   0  0  0  0  0  0  0  0  0  0  0  0
    4.8078   -3.2389   25.3798 H   0  0  0  0  0  0  0  0  0  0  0  0
    6.0723   -0.9067   24.9004 H   0  0  0  0  0  0  0  0  0  0  0  0
    7.5581   -0.7857   25.8342 H   0  0  0  0  0  0  0  0  0  0  0  0
    9.3331    1.8091   22.8137 H   0  0  0  0  0  0  0  0  0  0  0  0
    8.8738    0.4363   21.8056 H   0  0  0  0  0  0  0  0  0  0  0  0
    5.5487   -5.5755   25.8871 H   0  0  0  0  0  0  0  0  0  0  0  0
    8.4773    0.7254   24.6885 H   0  0  0  0  0  0  0  0  0  0  0  0
  1  2  2  0  0  0  0
  1  5  1  0  0  0  0
  1 22  1  0  0  0  0
  2  8  1  0  0  0  0
  2 23  1  0  0  0  0
  3  6  2  0  0  0  0
  3 10  1  0  0  0  0
  3 24  1  0  0  0  0
  4 10  2  0  0  0  0
  4 11  1  0  0  0  0
  4 25  1  0  0  0  0
  5 17  2  0  0  0  0
  5 26  1  0  0  0  0
  6 16  1  0  0  0  0
  6 27  1  0  0  0  0
  7  9  2  0  0  0  0
  7 18  1  0  0  0  0
  7 28  1  0  0  0  0
  8  9  1  0  0  0  0
  8 12  2  0  0  0  0
  9 14  1  0  0  0  0
 10 21  1  0  0  0  0
 11 15  1  0  0  0  0
 11 16  2  0  0  0  0
 12 17  1  0  0  0  0
 12 18  1  0  0  0  0
 13 14  1  0  0  0  0
 13 19  1  0  0  0  0
 13 20  2  0  0  0  0
 14 29  1  0  0  0  0
 14 30  1  0  0  0  0
 15 19  1  0  0  0  0
 15 31  1  0  0  0  0
 15 32  1  0  0  0  0
 18 33  1  0  0  0  0
 19 34  1  0  0  0  0
M  END
>  <Chemgauss4 Score>
-5.36679077148438

>  <Number of Confs>
200

$$$$
