AGN-NEW-891-8
 OpenBabel03242009303D

 38 40  0  0  0  0  0  0  0  0999 V2000
   12.9261    0.1176   23.3656 C   0  0  0  0  0  0  0  0  0  0  0  0
   13.0335   -0.8477   22.3646 C   0  0  0  0  0  0  0  0  0  0  0  0
    8.8770   -0.5033   27.2723 C   0  0  0  0  0  0  0  0  0  0  0  0
    5.8341   -6.1990   22.2652 C   0  0  0  0  0  0  0  0  0  0  0  0
   12.0404   -0.0731   24.4263 C   0  0  0  0  0  0  0  0  0  0  0  0
    9.7608   -0.3184   26.2092 C   0  0  0  0  0  0  0  0  0  0  0  0
    6.8464   -5.8872   23.1660 C   0  0  0  0  0  0  0  0  0  0  0  0
   12.2552   -2.0037   22.4240 C   0  0  0  0  0  0  0  0  0  0  0  0
    8.5772   -1.7921   27.7140 C   0  0  0  0  0  0  0  0  0  0  0  0
   10.0451   -2.7109   26.0293 C   0  0  0  0  0  0  0  0  0  0  0  0
    4.5313   -5.8899   22.6213 C   0  0  0  0  0  0  0  0  0  0  0  0
    5.1954   -5.0161   24.6396 C   0  0  0  0  0  0  0  0  0  0  0  0
   10.3448   -1.4221   25.5877 C   0  0  0  0  0  0  0  0  0  0  0  0
   11.2620   -1.2291   24.4857 C   0  0  0  0  0  0  0  0  0  0  0  0
    6.5294   -5.2844   24.3782 C   0  0  0  0  0  0  0  0  0  0  0  0
   11.3694   -2.1944   23.4846 C   0  0  0  0  0  0  0  0  0  0  0  0
    9.1613   -2.8958   27.0925 C   0  0  0  0  0  0  0  0  0  0  0  0
    7.5788   -4.9422   25.3539 C   0  0  0  0  0  0  0  0  0  0  0  0
    7.4119   -4.9316   26.6822 C   0  0  0  0  0  0  0  0  0  0  0  0
    4.1846   -5.3044   23.7894 N   0  0  0  0  0  0  0  0  0  0  0  0
    9.8922   -5.3895   27.2886 O   0  0  0  0  0  0  0  0  0  0  0  0
    8.3795   -4.4148   29.0440 O   0  0  0  0  0  0  0  0  0  0  0  0
   10.6271   -3.3105   23.5260 F   0  0  0  0  0  0  0  0  0  0  0  0
    8.7873   -4.5086   27.6476 S   0  0  0  0  0  0  0  0  0  0  0  0
   13.5324    1.0175   23.3192 H   0  0  0  0  0  0  0  0  0  0  0  0
   13.7230   -0.6992   21.5388 H   0  0  0  0  0  0  0  0  0  0  0  0
    8.4224    0.3561   27.7566 H   0  0  0  0  0  0  0  0  0  0  0  0
    6.0579   -6.6689   21.3144 H   0  0  0  0  0  0  0  0  0  0  0  0
   11.9680    0.6888   25.1987 H   0  0  0  0  0  0  0  0  0  0  0  0
    9.9839    0.6925   25.8763 H   0  0  0  0  0  0  0  0  0  0  0  0
    7.8770   -6.1199   22.9099 H   0  0  0  0  0  0  0  0  0  0  0  0
   12.3387   -2.7553   21.6446 H   0  0  0  0  0  0  0  0  0  0  0  0
    7.8874   -1.9251   28.5429 H   0  0  0  0  0  0  0  0  0  0  0  0
   10.4974   -3.5754   25.5478 H   0  0  0  0  0  0  0  0  0  0  0  0
    3.7060   -6.1137   21.9535 H   0  0  0  0  0  0  0  0  0  0  0  0
    4.8818   -4.5466   25.5677 H   0  0  0  0  0  0  0  0  0  0  0  0
    8.5515   -4.7026   24.9288 H   0  0  0  0  0  0  0  0  0  0  0  0
    6.4818   -5.1783   27.1778 H   0  0  0  0  0  0  0  0  0  0  0  0
  1  2  1  0  0  0  0
  1  5  2  0  0  0  0
  1 25  1  0  0  0  0
  2  8  2  0  0  0  0
  2 26  1  0  0  0  0
  3  6  1  0  0  0  0
  3  9  2  0  0  0  0
  3 27  1  0  0  0  0
  4  7  2  0  0  0  0
  4 11  1  0  0  0  0
  4 28  1  0  0  0  0
  5 14  1  0  0  0  0
  5 29  1  0  0  0  0
  6 13  2  0  0  0  0
  6 30  1  0  0  0  0
  7 15  1  0  0  0  0
  7 31  1  0  0  0  0
  8 16  1  0  0  0  0
  8 32  1  0  0  0  0
  9 17  1  0  0  0  0
  9 33  1  0  0  0  0
 10 13  1  0  0  0  0
 10 17  2  0  0  0  0
 10 34  1  0  0  0  0
 11 20  2  0  0  0  0
 11 35  1  0  0  0  0
 12 15  2  0  0  0  0
 12 20  1  0  0  0  0
 12 36  1  0  0  0  0
 13 14  1  0  0  0  0
 14 16  2  0  0  0  0
 15 18  1  0  0  0  0
 16 23  1  0  0  0  0
 17 24  1  0  0  0  0
 18 19  2  0  0  0  0
 18 37  1  0  0  0  0
 19 24  1  0  0  0  0
 19 38  1  0  0  0  0
 21 24  2  0  0  0  0
 22 24  2  0  0  0  0
M  END
>  <Chemgauss4 Score>
-5.62912225723267

>  <Number of Confs>
200

$$$$
