KIM-UNI-60f-9
 OpenBabel03242009303D

 44 46  0  0  1  0  0  0  0  0999 V2000
   12.8311   -0.7127   22.6738 C   0  0  0  0  0  0  0  0  0  0  0  0
   12.9337    0.1833   23.7257 C   0  0  0  0  0  0  0  0  0  0  0  0
   10.8930   -0.4425   24.5752 C   0  0  0  0  0  0  0  0  0  0  0  0
   11.6871   -1.4992   22.5981 C   0  0  0  0  0  0  0  0  0  0  0  0
   10.6946   -1.3677   23.5630 C   0  0  0  0  0  0  0  0  0  0  0  0
    7.1618   -3.6606   23.2722 C   0  0  0  0  0  0  0  0  0  0  0  0
    7.2021   -2.4650   22.6847 C   0  0  0  0  0  0  0  0  0  0  0  0
    8.2646   -4.1812   24.0595 C   0  0  0  0  0  0  0  0  0  0  0  0
    9.3819   -3.4156   24.1703 C   0  0  0  0  0  0  0  0  0  0  0  0
    8.4175   -1.6257   22.7819 C   0  0  0  0  0  0  0  0  0  0  0  0
    5.6506   -4.3562   25.9493 C   0  0  0  0  0  0  0  0  0  0  0  0
   10.5001   -3.8748   25.0919 C   0  0  0  0  0  0  0  0  0  0  0  0
   10.0333   -4.8894   26.1336 C   0  0  0  0  0  0  0  0  0  0  0  0
    9.2299   -6.0014   25.4796 C   0  0  0  0  0  0  0  0  0  0  0  0
   11.5500   -2.4732   21.4742 C   0  0  0  0  0  0  0  0  0  0  0  0
    6.0380   -5.8236   25.9630 C   0  0  0  0  0  0  0  0  0  0  0  0
    6.8788   -6.1869   24.7464 C   0  0  0  0  0  0  0  0  0  0  0  0
   11.9908    0.3392   24.6818 N   0  0  0  0  0  0  0  0  0  0  0  0
    6.4210   -3.5171   26.5709 N   0  0  0  0  0  0  0  0  0  0  0  0
    9.4904   -2.1600   23.5292 N   0  0  0  0  0  0  0  0  0  0  0  0
    8.1311   -5.4333   24.6912 N   0  0  0  0  0  0  0  0  0  0  0  0
    4.5149   -4.0064   25.2672 N   0  0  0  0  0  0  0  0  0  0  0  0
    8.4167   -0.5553   22.1720 O   0  0  0  0  0  0  0  0  0  0  0  0
   13.6235   -0.7907   21.9372 H   0  0  0  0  0  0  0  0  0  0  0  0
   13.8062    0.8200   23.8298 H   0  0  0  0  0  0  0  0  0  0  0  0
   10.1547   -0.2941   25.3578 H   0  0  0  0  0  0  0  0  0  0  0  0
    6.2549   -4.2457   23.1669 H   0  0  0  0  0  0  0  0  0  0  0  0
    6.3635   -2.0869   22.1114 H   0  0  0  0  0  0  0  0  0  0  0  0
   11.3021   -4.3079   24.4814 H   0  0  0  0  0  0  0  0  0  0  0  0
   10.9275   -3.0257   25.6380 H   0  0  0  0  0  0  0  0  0  0  0  0
   10.9008   -5.3104   26.6547 H   0  0  0  0  0  0  0  0  0  0  0  0
    9.4198   -4.3877   26.8933 H   0  0  0  0  0  0  0  0  0  0  0  0
    9.8705   -6.6010   24.8218 H   0  0  0  0  0  0  0  0  0  0  0  0
    8.8477   -6.6639   26.2650 H   0  0  0  0  0  0  0  0  0  0  0  0
   11.9741   -3.4432   21.7583 H   0  0  0  0  0  0  0  0  0  0  0  0
   10.4974   -2.6181   21.2015 H   0  0  0  0  0  0  0  0  0  0  0  0
   12.0665   -2.1156   20.5748 H   0  0  0  0  0  0  0  0  0  0  0  0
    6.5796   -6.0448   26.8903 H   0  0  0  0  0  0  0  0  0  0  0  0
    5.1188   -6.4209   25.9649 H   0  0  0  0  0  0  0  0  0  0  0  0
    7.1467   -7.2476   24.7761 H   0  0  0  0  0  0  0  0  0  0  0  0
    6.3391   -5.9925   23.8143 H   0  0  0  0  0  0  0  0  0  0  0  0
    7.2040   -4.0341   26.9860 H   0  0  0  0  0  0  0  0  0  0  0  0
    3.9529   -4.7039   24.7914 H   0  0  0  0  0  0  0  0  0  0  0  0
    4.1949   -3.0449   25.2185 H   0  0  0  0  0  0  0  0  0  0  0  0
  1  2  2  0  0  0  0
  1  4  1  0  0  0  0
  1 24  1  0  0  0  0
  2 18  1  0  0  0  0
  2 25  1  0  0  0  0
  3  5  1  0  0  0  0
  3 18  2  0  0  0  0
  3 26  1  0  0  0  0
  4  5  2  0  0  0  0
  4 15  1  0  0  0  0
  5 20  1  0  0  0  0
  6  7  2  0  0  0  0
  6  8  1  0  0  0  0
  6 27  1  0  0  0  0
  7 10  1  0  0  0  0
  7 28  1  0  0  0  0
  8  9  2  0  0  0  0
  8 21  1  0  0  0  0
  9 12  1  0  0  0  0
  9 20  1  0  0  0  0
 10 20  1  0  0  0  0
 10 23  2  0  0  0  0
 11 16  1  0  0  0  0
 11 19  2  0  0  0  0
 11 22  1  0  0  0  0
 12 13  1  0  0  0  0
 12 29  1  0  0  0  0
 12 30  1  0  0  0  0
 13 14  1  0  0  0  0
 13 31  1  0  0  0  0
 13 32  1  0  0  0  0
 14 21  1  0  0  0  0
 14 33  1  0  0  0  0
 14 34  1  0  0  0  0
 15 35  1  0  0  0  0
 15 36  1  0  0  0  0
 15 37  1  0  0  0  0
 16 17  1  0  0  0  0
 16 38  1  0  0  0  0
 16 39  1  0  0  0  0
 17 21  1  0  0  0  0
 17 40  1  0  0  0  0
 17 41  1  0  0  0  0
 19 42  1  0  0  0  0
 22 43  1  0  0  0  0
 22 44  1  0  0  0  0
M  END
>  <Chemgauss4 Score>
-4.80645036697388

>  <Number of Confs>
18

$$$$
