KIM-UNI-60f-10
 OpenBabel03242009303D

 43 45  0  0  1  0  0  0  0  0999 V2000
   12.9643   -0.8073   22.7588 C   0  0  0  0  0  0  0  0  0  0  0  0
   12.7336    0.3744   23.4444 C   0  0  0  0  0  0  0  0  0  0  0  0
   10.5976   -0.2616   24.0021 C   0  0  0  0  0  0  0  0  0  0  0  0
   11.9373   -1.7434   22.7115 C   0  0  0  0  0  0  0  0  0  0  0  0
   10.7281   -1.4730   23.3424 C   0  0  0  0  0  0  0  0  0  0  0  0
    7.4014   -4.0711   23.2548 C   0  0  0  0  0  0  0  0  0  0  0  0
    7.5418   -3.1737   22.2794 C   0  0  0  0  0  0  0  0  0  0  0  0
    8.3791   -4.2305   24.3159 C   0  0  0  0  0  0  0  0  0  0  0  0
    9.4611   -3.4082   24.3103 C   0  0  0  0  0  0  0  0  0  0  0  0
    8.7052   -2.2585   22.2685 C   0  0  0  0  0  0  0  0  0  0  0  0
    6.3117   -5.1444   27.6496 C   0  0  0  0  0  0  0  0  0  0  0  0
   10.5640   -3.6366   25.3310 C   0  0  0  0  0  0  0  0  0  0  0  0
   10.5427   -5.0433   25.9252 C   0  0  0  0  0  0  0  0  0  0  0  0
    9.1419   -5.4119   26.3855 C   0  0  0  0  0  0  0  0  0  0  0  0
   12.1585   -3.0259   21.9786 C   0  0  0  0  0  0  0  0  0  0  0  0
    5.8941   -5.4014   26.2129 C   0  0  0  0  0  0  0  0  0  0  0  0
    6.9828   -6.0584   25.3758 C   0  0  0  0  0  0  0  0  0  0  0  0
   11.5726    0.6725   24.0695 N   0  0  0  0  0  0  0  0  0  0  0  0
    9.6329   -2.4109   23.3227 N   0  0  0  0  0  0  0  0  0  0  0  0
    8.1866   -5.2326   25.2869 N   0  0  0  0  0  0  0  0  0  0  0  0
    6.2623   -3.8060   27.9769 N   0  0  0  0  0  0  0  0  0  0  0  0
    8.7515   -1.4122   21.3746 O   0  0  0  0  0  0  0  0  0  0  0  0
    6.6453   -6.0255   28.4364 O   0  0  0  0  0  0  0  0  0  0  0  0
   13.9192   -0.9874   22.2769 H   0  0  0  0  0  0  0  0  0  0  0  0
   13.5024    1.1372   23.5106 H   0  0  0  0  0  0  0  0  0  0  0  0
    9.6781    0.0070   24.5139 H   0  0  0  0  0  0  0  0  0  0  0  0
    6.5063   -4.6832   23.2540 H   0  0  0  0  0  0  0  0  0  0  0  0
    6.8269   -3.1025   21.4678 H   0  0  0  0  0  0  0  0  0  0  0  0
   11.5317   -3.4489   24.8494 H   0  0  0  0  0  0  0  0  0  0  0  0
   10.4729   -2.9324   26.1663 H   0  0  0  0  0  0  0  0  0  0  0  0
   10.8943   -5.7653   25.1795 H   0  0  0  0  0  0  0  0  0  0  0  0
   11.2373   -5.0997   26.7735 H   0  0  0  0  0  0  0  0  0  0  0  0
    9.1111   -6.4555   26.7208 H   0  0  0  0  0  0  0  0  0  0  0  0
    8.8785   -4.7799   27.2417 H   0  0  0  0  0  0  0  0  0  0  0  0
   12.5689   -3.7841   22.6554 H   0  0  0  0  0  0  0  0  0  0  0  0
   11.2213   -3.4065   21.5542 H   0  0  0  0  0  0  0  0  0  0  0  0
   12.8555   -2.8893   21.1425 H   0  0  0  0  0  0  0  0  0  0  0  0
    5.5870   -4.4500   25.7617 H   0  0  0  0  0  0  0  0  0  0  0  0
    5.0174   -6.0596   26.2401 H   0  0  0  0  0  0  0  0  0  0  0  0
    7.2767   -7.0284   25.7896 H   0  0  0  0  0  0  0  0  0  0  0  0
    6.6285   -6.2137   24.3520 H   0  0  0  0  0  0  0  0  0  0  0  0
    5.9675   -3.1401   27.2704 H   0  0  0  0  0  0  0  0  0  0  0  0
    6.5104   -3.4631   28.8995 H   0  0  0  0  0  0  0  0  0  0  0  0
  1  2  2  0  0  0  0
  1  4  1  0  0  0  0
  1 24  1  0  0  0  0
  2 18  1  0  0  0  0
  2 25  1  0  0  0  0
  3  5  1  0  0  0  0
  3 18  2  0  0  0  0
  3 26  1  0  0  0  0
  4  5  2  0  0  0  0
  4 15  1  0  0  0  0
  5 19  1  0  0  0  0
  6  7  2  0  0  0  0
  6  8  1  0  0  0  0
  6 27  1  0  0  0  0
  7 10  1  0  0  0  0
  7 28  1  0  0  0  0
  8  9  2  0  0  0  0
  8 20  1  0  0  0  0
  9 12  1  0  0  0  0
  9 19  1  0  0  0  0
 10 19  1  0  0  0  0
 10 22  2  0  0  0  0
 11 16  1  0  0  0  0
 11 21  1  0  0  0  0
 11 23  2  0  0  0  0
 12 13  1  0  0  0  0
 12 29  1  0  0  0  0
 12 30  1  0  0  0  0
 13 14  1  0  0  0  0
 13 31  1  0  0  0  0
 13 32  1  0  0  0  0
 14 20  1  0  0  0  0
 14 33  1  0  0  0  0
 14 34  1  0  0  0  0
 15 35  1  0  0  0  0
 15 36  1  0  0  0  0
 15 37  1  0  0  0  0
 16 17  1  0  0  0  0
 16 38  1  0  0  0  0
 16 39  1  0  0  0  0
 17 20  1  0  0  0  0
 17 40  1  0  0  0  0
 17 41  1  0  0  0  0
 21 42  1  0  0  0  0
 21 43  1  0  0  0  0
M  END
>  <Chemgauss4 Score>
-6.05218362808228

>  <Number of Confs>
40

$$$$
