JOH-MSK-a63-7
 OpenBabel03242009303D

 28 29  0  0  0  0  0  0  0  0999 V2000
   11.6921   -3.2671   24.1215 C   0  0  0  0  0  0  0  0  0  0  0  0
   11.4866   -1.9515   23.6963 C   0  0  0  0  0  0  0  0  0  0  0  0
    9.4549   -1.7812   25.0156 C   0  0  0  0  0  0  0  0  0  0  0  0
    9.5937   -5.1703   26.3778 C   0  0  0  0  0  0  0  0  0  0  0  0
    9.6412   -3.1061   25.4578 C   0  0  0  0  0  0  0  0  0  0  0  0
    8.9189   -3.9724   26.3254 C   0  0  0  0  0  0  0  0  0  0  0  0
   10.7532   -3.8170   25.0015 C   0  0  0  0  0  0  0  0  0  0  0  0
   10.3860   -1.2181   24.1352 C   0  0  0  0  0  0  0  0  0  0  0  0
   11.1936    0.5831   22.8089 C   0  0  0  0  0  0  0  0  0  0  0  0
    7.6700   -3.6537   27.0461 C   0  0  0  0  0  0  0  0  0  0  0  0
    7.8664   -3.3661   28.5458 C   0  0  0  0  0  0  0  0  0  0  0  0
   10.6988   -5.0668   25.5763 N   0  0  0  0  0  0  0  0  0  0  0  0
    8.4545   -4.4807   29.2391 N   0  0  0  0  0  0  0  0  0  0  0  0
   10.2128    0.0631   23.7038 O   0  0  0  0  0  0  0  0  0  0  0  0
   12.5491   -3.8373   23.7787 H   0  0  0  0  0  0  0  0  0  0  0  0
   12.2007   -1.5002   23.0112 H   0  0  0  0  0  0  0  0  0  0  0  0
    8.6001   -1.2013   25.3528 H   0  0  0  0  0  0  0  0  0  0  0  0
    9.3878   -6.0870   26.9126 H   0  0  0  0  0  0  0  0  0  0  0  0
   10.9368    1.6115   22.5433 H   0  0  0  0  0  0  0  0  0  0  0  0
   11.2336   -0.0375   21.9102 H   0  0  0  0  0  0  0  0  0  0  0  0
   12.1682    0.5692   23.3026 H   0  0  0  0  0  0  0  0  0  0  0  0
    6.9525   -4.4929   26.9529 H   0  0  0  0  0  0  0  0  0  0  0  0
    7.1478   -2.7905   26.5859 H   0  0  0  0  0  0  0  0  0  0  0  0
    8.5342   -2.5121   28.6975 H   0  0  0  0  0  0  0  0  0  0  0  0
    6.9106   -3.1424   29.0308 H   0  0  0  0  0  0  0  0  0  0  0  0
   11.3767   -5.8012   25.4269 H   0  0  0  0  0  0  0  0  0  0  0  0
    7.8198   -4.8105   29.9374 H   0  0  0  0  0  0  0  0  0  0  0  0
    8.6447   -5.2143   28.5872 H   0  0  0  0  0  0  0  0  0  0  0  0
  1  2  2  0  0  0  0
  1  7  1  0  0  0  0
  1 15  1  0  0  0  0
  2  8  1  0  0  0  0
  2 16  1  0  0  0  0
  3  5  1  0  0  0  0
  3  8  2  0  0  0  0
  3 17  1  0  0  0  0
  4  6  2  0  0  0  0
  4 12  1  0  0  0  0
  4 18  1  0  0  0  0
  5  6  1  0  0  0  0
  5  7  2  0  0  0  0
  6 10  1  0  0  0  0
  7 12  1  0  0  0  0
  8 14  1  0  0  0  0
  9 14  1  0  0  0  0
  9 19  1  0  0  0  0
  9 20  1  0  0  0  0
  9 21  1  0  0  0  0
 10 11  1  0  0  0  0
 10 22  1  0  0  0  0
 10 23  1  0  0  0  0
 11 13  1  0  0  0  0
 11 24  1  0  0  0  0
 11 25  1  0  0  0  0
 12 26  1  0  0  0  0
 13 27  1  0  0  0  0
 13 28  1  0  0  0  0
M  END
>  <Chemgauss4 Score>
-5.53720855712891

>  <Number of Confs>
11

$$$$
