GIA-UNK-995-9
 OpenBabel03242009303D

 37 37  0  0  1  0  0  0  0  0999 V2000
    8.2245   -5.1149   25.8453 C   0  0  0  0  0  0  0  0  0  0  0  0
   10.9234   -0.9624   24.6077 C   0  0  0  0  0  0  0  0  0  0  0  0
    8.0387   -2.6336   25.8516 C   0  0  0  0  0  0  0  0  0  0  0  0
    8.9065   -3.8521   23.7960 C   0  0  0  0  0  0  0  0  0  0  0  0
    9.4774   -2.2278   26.1661 C   0  0  0  0  0  0  0  0  0  0  0  0
   10.3175   -3.3919   24.1646 C   0  0  0  0  0  0  0  0  0  0  0  0
    7.9592   -3.9040   24.9990 C   0  0  1  0  0  0  0  0  0  0  0  0
   13.7520    0.0273   22.1700 C   0  0  0  0  0  0  0  0  0  0  0  0
   10.7789   -0.5911   22.1922 C   0  0  0  0  0  0  0  0  0  0  0  0
   12.8907    0.0136   23.4264 C   0  0  0  0  0  0  0  0  0  0  0  0
    8.3123   -5.2306   28.5841 C   0  0  0  0  0  0  0  0  0  0  0  0
   11.7209   -0.9658   23.3279 C   0  0  1  0  0  0  0  0  0  0  0  0
   10.2735   -2.1497   24.9420 N   0  0  0  0  0  0  0  0  0  0  0  0
    9.1183   -5.9169   25.6029 O   0  0  0  0  0  0  0  0  0  0  0  0
   10.8789    0.0663   25.2874 O   0  0  0  0  0  0  0  0  0  0  0  0
    9.0108   -4.0646   28.5453 F   0  0  0  0  0  0  0  0  0  0  0  0
    7.1317   -5.2722   27.2202 S   0  0  0  0  0  0  0  0  0  0  0  0
    7.4889   -2.7681   26.7910 H   0  0  0  0  0  0  0  0  0  0  0  0
    7.5500   -1.8119   25.3124 H   0  0  0  0  0  0  0  0  0  0  0  0
    8.4954   -3.1574   23.0522 H   0  0  0  0  0  0  0  0  0  0  0  0
    8.9636   -4.8355   23.3140 H   0  0  0  0  0  0  0  0  0  0  0  0
    9.4807   -1.2697   26.6957 H   0  0  0  0  0  0  0  0  0  0  0  0
    9.9551   -2.9630   26.8240 H   0  0  0  0  0  0  0  0  0  0  0  0
   10.8220   -4.1431   24.7830 H   0  0  0  0  0  0  0  0  0  0  0  0
   10.9092   -3.2842   23.2537 H   0  0  0  0  0  0  0  0  0  0  0  0
    6.9305   -4.0177   24.6347 H   0  0  0  0  0  0  0  0  0  0  0  0
   14.1333   -0.9740   21.9454 H   0  0  0  0  0  0  0  0  0  0  0  0
   13.1887    0.3845   21.3025 H   0  0  0  0  0  0  0  0  0  0  0  0
   14.6101    0.6925   22.3095 H   0  0  0  0  0  0  0  0  0  0  0  0
   10.4004    0.4275   22.3260 H   0  0  0  0  0  0  0  0  0  0  0  0
   11.2807   -0.6444   21.2193 H   0  0  0  0  0  0  0  0  0  0  0  0
    9.9190   -1.2692   22.1551 H   0  0  0  0  0  0  0  0  0  0  0  0
   12.5281    1.0310   23.6188 H   0  0  0  0  0  0  0  0  0  0  0  0
   13.5254   -0.2664   24.2759 H   0  0  0  0  0  0  0  0  0  0  0  0
    9.0271   -6.0537   28.5044 H   0  0  0  0  0  0  0  0  0  0  0  0
    7.7962   -5.2815   29.5463 H   0  0  0  0  0  0  0  0  0  0  0  0
   12.0857   -1.9850   23.1733 H   0  0  0  0  0  0  0  0  0  0  0  0
  1  7  1  0  0  0  0
  1 14  2  0  0  0  0
  1 17  1  0  0  0  0
  2 12  1  0  0  0  0
  2 13  1  0  0  0  0
  2 15  2  0  0  0  0
  3  5  1  0  0  0  0
  3  7  1  0  0  0  0
  3 18  1  0  0  0  0
  3 19  1  0  0  0  0
  4  6  1  0  0  0  0
  4  7  1  0  0  0  0
  4 20  1  0  0  0  0
  4 21  1  0  0  0  0
  5 13  1  0  0  0  0
  5 22  1  0  0  0  0
  5 23  1  0  0  0  0
  6 13  1  0  0  0  0
  6 24  1  0  0  0  0
  6 25  1  0  0  0  0
  7 26  1  6  0  0  0
  8 10  1  0  0  0  0
  8 27  1  0  0  0  0
  8 28  1  0  0  0  0
  8 29  1  0  0  0  0
  9 12  1  0  0  0  0
  9 30  1  0  0  0  0
  9 31  1  0  0  0  0
  9 32  1  0  0  0  0
 10 12  1  0  0  0  0
 10 33  1  0  0  0  0
 10 34  1  0  0  0  0
 11 16  1  0  0  0  0
 11 17  1  0  0  0  0
 11 35  1  0  0  0  0
 11 36  1  0  0  0  0
 12 37  1  6  0  0  0
M  END
>  <Chemgauss4 Score>
-4.9233570098877

>  <Number of Confs>
200

$$$$
