ANT-DIA-045-1
 OpenBabel03242009303D

 29 30  0  0  1  0  0  0  0  0999 V2000
   11.1618   -2.4403   23.3827 C   0  0  0  0  0  0  0  0  0  0  0  0
   11.6958   -1.5088   22.5197 C   0  0  0  0  0  0  0  0  0  0  0  0
   11.2279   -0.5525   24.7370 C   0  0  0  0  0  0  0  0  0  0  0  0
   10.8905   -1.8864   24.6671 C   0  0  0  0  0  0  0  0  0  0  0  0
    8.0820   -2.8566   24.6122 C   0  0  0  0  0  0  0  0  0  0  0  0
    9.6519   -4.6782   26.9667 C   0  0  0  0  0  0  0  0  0  0  0  0
   10.5958   -4.1766   25.8822 C   0  0  0  0  0  0  0  0  0  0  0  0
    8.4153   -3.7807   26.8918 C   0  0  0  0  0  0  0  0  0  0  0  0
   10.3020   -2.6729   25.8181 C   0  0  2  0  0  0  0  0  0  0  0  0
    8.7655   -2.6362   25.9335 C   0  0  1  0  0  0  0  0  0  0  0  0
    7.2173   -4.6218   23.0894 C   0  0  0  0  0  0  0  0  0  0  0  0
    7.8611   -4.1863   24.3079 N   0  0  0  0  0  0  0  0  0  0  0  0
    7.7767   -1.8915   23.9214 O   0  0  0  0  0  0  0  0  0  0  0  0
   11.8684    0.0265   23.2582 S   0  0  0  0  0  0  0  0  0  0  0  0
   10.9765   -3.4694   23.1018 H   0  0  0  0  0  0  0  0  0  0  0  0
   11.9935   -1.6565   21.4912 H   0  0  0  0  0  0  0  0  0  0  0  0
   11.1316    0.1129   25.5838 H   0  0  0  0  0  0  0  0  0  0  0  0
    9.4014   -5.7348   26.8308 H   0  0  0  0  0  0  0  0  0  0  0  0
   10.1233   -4.5747   27.9513 H   0  0  0  0  0  0  0  0  0  0  0  0
   11.6432   -4.3844   26.1249 H   0  0  0  0  0  0  0  0  0  0  0  0
   10.3748   -4.6691   24.9269 H   0  0  0  0  0  0  0  0  0  0  0  0
    7.5390   -4.3512   26.5637 H   0  0  0  0  0  0  0  0  0  0  0  0
    8.1894   -3.3879   27.8900 H   0  0  0  0  0  0  0  0  0  0  0  0
   10.7097   -2.2019   26.7573 H   0  0  0  0  0  0  0  0  0  0  0  0
    8.4192   -1.6722   26.3154 H   0  0  0  0  0  0  0  0  0  0  0  0
    6.1312   -4.6870   23.2510 H   0  0  0  0  0  0  0  0  0  0  0  0
    7.4256   -3.8994   22.2864 H   0  0  0  0  0  0  0  0  0  0  0  0
    7.6052   -5.6104   22.8029 H   0  0  0  0  0  0  0  0  0  0  0  0
    8.1658   -4.8914   24.9723 H   0  0  0  0  0  0  0  0  0  0  0  0
  1  2  2  0  0  0  0
  1  4  1  0  0  0  0
  1 15  1  0  0  0  0
  2 14  1  0  0  0  0
  2 16  1  0  0  0  0
  3  4  2  0  0  0  0
  3 14  1  0  0  0  0
  3 17  1  0  0  0  0
  4  9  1  0  0  0  0
  5 10  1  0  0  0  0
  5 12  1  0  0  0  0
  5 13  2  0  0  0  0
  6  7  1  0  0  0  0
  6  8  1  0  0  0  0
  6 18  1  0  0  0  0
  6 19  1  0  0  0  0
  7  9  1  0  0  0  0
  7 20  1  0  0  0  0
  7 21  1  0  0  0  0
  8 10  1  0  0  0  0
  8 22  1  0  0  0  0
  8 23  1  0  0  0  0
  9 10  1  0  0  0  0
  9 24  1  1  0  0  0
 10 25  1  1  0  0  0
 11 12  1  0  0  0  0
 11 26  1  0  0  0  0
 11 27  1  0  0  0  0
 11 28  1  0  0  0  0
 12 29  1  0  0  0  0
M  END
>  <Chemgauss4 Score>
-4.89860916137695

>  <Number of Confs>
18

$$$$
