SAL-INS-1c7-4
 OpenBabel03242009303D

 47 50  0  0  1  0  0  0  0  0999 V2000
   11.5846   -2.0127   24.2937 C   0  0  0  0  0  0  0  0  0  0  0  0
   11.1144   -2.8571   25.2984 C   0  0  0  0  0  0  0  0  0  0  0  0
    9.8972   -2.8636   22.7937 C   0  0  0  0  0  0  0  0  0  0  0  0
    9.0679   -3.8069   28.6013 C   0  0  0  0  0  0  0  0  0  0  0  0
    8.5826    1.3062   21.9059 C   0  0  0  0  0  0  0  0  0  0  0  0
    7.2217   -2.7046   28.1183 C   0  0  0  0  0  0  0  0  0  0  0  0
    8.3282    0.7341   24.0188 C   0  0  0  0  0  0  0  0  0  0  0  0
   10.9774   -2.0171   23.0415 C   0  0  0  0  0  0  0  0  0  0  0  0
   10.0293   -3.7164   25.0603 C   0  0  0  0  0  0  0  0  0  0  0  0
    9.4093   -3.7141   23.7975 C   0  0  0  0  0  0  0  0  0  0  0  0
    8.7657   -3.8940   27.2628 C   0  0  0  0  0  0  0  0  0  0  0  0
    9.5206    0.3780   22.2920 C   0  0  0  0  0  0  0  0  0  0  0  0
   11.4690   -1.1391   21.9915 C   0  0  0  0  0  0  0  0  0  0  0  0
    6.3972   -5.7794   24.7744 C   0  0  0  0  0  0  0  0  0  0  0  0
    8.2375   -4.6115   23.4828 C   0  0  0  0  0  0  0  0  0  0  0  0
    8.7235   -5.8051   25.6050 C   0  0  0  0  0  0  0  0  0  0  0  0
    9.5321   -4.6257   26.1691 C   0  0  1  0  0  0  0  0  0  0  0  0
   10.6770    0.2470   20.0494 C   0  0  0  0  0  0  0  0  0  0  0  0
    5.4565   -5.4114   23.6539 C   0  0  0  0  0  0  0  0  0  0  0  0
    7.6155   -3.2055   26.9685 N   0  0  0  0  0  0  0  0  0  0  0  0
    9.3566    0.0257   23.6083 N   0  0  0  0  0  0  0  0  0  0  0  0
    8.0702   -3.0415   29.1361 N   0  0  0  0  0  0  0  0  0  0  0  0
    7.8257    1.5241   23.0225 N   0  0  0  0  0  0  0  0  0  0  0  0
    7.7229   -5.3619   24.6352 N   0  0  0  0  0  0  0  0  0  0  0  0
   10.5624   -0.1800   21.4522 N   0  0  0  0  0  0  0  0  0  0  0  0
   12.6326   -1.2471   21.5807 O   0  0  0  0  0  0  0  0  0  0  0  0
    5.9662   -6.4098   25.7431 O   0  0  0  0  0  0  0  0  0  0  0  0
    4.2547   -6.6938   23.5649 Cl  0  0  0  0  0  0  0  0  0  0  0  0
   12.4270   -1.3573   24.4988 H   0  0  0  0  0  0  0  0  0  0  0  0
   11.6027   -2.8448   26.2699 H   0  0  0  0  0  0  0  0  0  0  0  0
    9.4247   -2.8637   21.8133 H   0  0  0  0  0  0  0  0  0  0  0  0
    9.8723   -4.2036   29.2038 H   0  0  0  0  0  0  0  0  0  0  0  0
    8.3876    1.8164   20.9732 H   0  0  0  0  0  0  0  0  0  0  0  0
    6.3426   -2.0971   28.2807 H   0  0  0  0  0  0  0  0  0  0  0  0
    7.9012    0.7203   25.0114 H   0  0  0  0  0  0  0  0  0  0  0  0
    7.4380   -4.0022   23.0522 H   0  0  0  0  0  0  0  0  0  0  0  0
    8.5441   -5.3551   22.7375 H   0  0  0  0  0  0  0  0  0  0  0  0
    9.3885   -6.4987   25.0741 H   0  0  0  0  0  0  0  0  0  0  0  0
    8.2544   -6.3685   26.4192 H   0  0  0  0  0  0  0  0  0  0  0  0
   10.4428   -5.1115   26.6760 H   0  0  0  0  0  0  0  0  0  0  0  0
   11.3452    1.1184   19.9843 H   0  0  0  0  0  0  0  0  0  0  0  0
   11.0893   -0.5766   19.4480 H   0  0  0  0  0  0  0  0  0  0  0  0
    9.6822    0.5185   19.6665 H   0  0  0  0  0  0  0  0  0  0  0  0
    6.0172   -5.3610   22.7279 H   0  0  0  0  0  0  0  0  0  0  0  0
    4.9788   -4.4686   23.8930 H   0  0  0  0  0  0  0  0  0  0  0  0
    7.9759   -2.7741   30.1068 H   0  0  0  0  0  0  0  0  0  0  0  0
    7.0391    2.1552   23.0984 H   0  0  0  0  0  0  0  0  0  0  0  0
  1  2  2  0  0  0  0
  1  8  1  0  0  0  0
  1 29  1  0  0  0  0
  2  9  1  0  0  0  0
  2 30  1  0  0  0  0
  3  8  2  0  0  0  0
  3 10  1  0  0  0  0
  3 31  1  0  0  0  0
  4 11  2  0  0  0  0
  4 22  1  0  0  0  0
  4 32  1  0  0  0  0
  5 12  2  0  0  0  0
  5 23  1  0  0  0  0
  5 33  1  0  0  0  0
  6 20  2  0  0  0  0
  6 22  1  0  0  0  0
  6 34  1  0  0  0  0
  7 21  2  0  0  0  0
  7 23  1  0  0  0  0
  7 35  1  0  0  0  0
  8 13  1  0  0  0  0
  9 10  2  0  0  0  0
  9 17  1  0  0  0  0
 10 15  1  0  0  0  0
 11 17  1  0  0  0  0
 11 20  1  0  0  0  0
 12 21  1  0  0  0  0
 12 25  1  0  0  0  0
 13 25  1  0  0  0  0
 13 26  2  0  0  0  0
 14 19  1  0  0  0  0
 14 24  1  0  0  0  0
 14 27  2  0  0  0  0
 15 24  1  0  0  0  0
 15 36  1  0  0  0  0
 15 37  1  0  0  0  0
 16 17  1  0  0  0  0
 16 24  1  0  0  0  0
 16 38  1  0  0  0  0
 16 39  1  0  0  0  0
 17 40  1  1  0  0  0
 18 25  1  0  0  0  0
 18 41  1  0  0  0  0
 18 42  1  0  0  0  0
 18 43  1  0  0  0  0
 19 28  1  0  0  0  0
 19 44  1  0  0  0  0
 19 45  1  0  0  0  0
 22 46  1  0  0  0  0
 23 47  1  0  0  0  0
M  END
>  <Chemgauss4 Score>
-5.42118263244629

>  <Number of Confs>
200

$$$$
