SAL-INS-cba-2
 OpenBabel03242009303D

 39 42  0  0  0  0  0  0  0  0999 V2000
   10.4079   -3.8053   23.0955 C   0  0  0  0  0  0  0  0  0  0  0  0
    5.2464   -4.6234   25.8258 C   0  0  0  0  0  0  0  0  0  0  0  0
    5.7784   -5.8616   25.5530 C   0  0  0  0  0  0  0  0  0  0  0  0
   10.7524   -5.1775   26.4418 C   0  0  0  0  0  0  0  0  0  0  0  0
    6.3908    1.3317   20.7859 C   0  0  0  0  0  0  0  0  0  0  0  0
    6.3921    1.9511   18.6710 C   0  0  0  0  0  0  0  0  0  0  0  0
    9.8137   -4.1800   26.5919 C   0  0  0  0  0  0  0  0  0  0  0  0
   10.4760   -4.2764   24.4327 C   0  0  0  0  0  0  0  0  0  0  0  0
    9.6500   -3.6150   25.2945 C   0  0  0  0  0  0  0  0  0  0  0  0
    7.2677    0.5783   20.0418 C   0  0  0  0  0  0  0  0  0  0  0  0
    9.4986   -2.7725   23.0104 C   0  0  0  0  0  0  0  0  0  0  0  0
    6.8820   -4.8484   27.1692 C   0  0  0  0  0  0  0  0  0  0  0  0
    8.1723   -0.9566   21.8431 C   0  0  0  0  0  0  0  0  0  0  0  0
    9.0901   -3.7297   27.7845 C   0  0  0  0  0  0  0  0  0  0  0  0
    7.9322   -4.6592   28.2365 C   0  0  0  0  0  0  0  0  0  0  0  0
    5.9381   -3.9977   26.8326 N   0  0  0  0  0  0  0  0  0  0  0  0
    7.2641    0.9690   18.7261 N   0  0  0  0  0  0  0  0  0  0  0  0
    5.8377    2.2070   19.8943 N   0  0  0  0  0  0  0  0  0  0  0  0
   11.1568   -5.2399   25.1353 N   0  0  0  0  0  0  0  0  0  0  0  0
    6.8256   -5.9914   26.4212 N   0  0  0  0  0  0  0  0  0  0  0  0
    8.0833   -0.4703   20.5290 N   0  0  0  0  0  0  0  0  0  0  0  0
    9.1178   -2.0298   21.9248 N   0  0  0  0  0  0  0  0  0  0  0  0
    7.5347   -0.5320   22.8014 O   0  0  0  0  0  0  0  0  0  0  0  0
    8.7396   -2.3716   24.5028 S   0  0  0  0  0  0  0  0  0  0  0  0
   10.9792   -4.1924   22.2615 H   0  0  0  0  0  0  0  0  0  0  0  0
    4.4016   -4.1501   25.3474 H   0  0  0  0  0  0  0  0  0  0  0  0
    5.5175   -6.6359   24.8464 H   0  0  0  0  0  0  0  0  0  0  0  0
   11.1745   -5.8605   27.1658 H   0  0  0  0  0  0  0  0  0  0  0  0
    6.1161    1.3288   21.8312 H   0  0  0  0  0  0  0  0  0  0  0  0
    6.1210    2.5130   17.7886 H   0  0  0  0  0  0  0  0  0  0  0  0
    9.7865   -3.6347   28.6465 H   0  0  0  0  0  0  0  0  0  0  0  0
    8.6844   -2.7006   27.6609 H   0  0  0  0  0  0  0  0  0  0  0  0
    7.4425   -4.2543   29.1319 H   0  0  0  0  0  0  0  0  0  0  0  0
    8.3377   -5.6338   28.5369 H   0  0  0  0  0  0  0  0  0  0  0  0
    5.1442    2.9135   20.1010 H   0  0  0  0  0  0  0  0  0  0  0  0
   11.8341   -5.8706   24.7249 H   0  0  0  0  0  0  0  0  0  0  0  0
    7.4430   -6.7890   26.4974 H   0  0  0  0  0  0  0  0  0  0  0  0
    8.6783   -0.9279   19.8430 H   0  0  0  0  0  0  0  0  0  0  0  0
    9.5578   -2.2473   21.0109 H   0  0  0  0  0  0  0  0  0  0  0  0
  1  8  1  0  0  0  0
  1 11  2  0  0  0  0
  1 25  1  0  0  0  0
  2  3  2  0  0  0  0
  2 16  1  0  0  0  0
  2 26  1  0  0  0  0
  3 20  1  0  0  0  0
  3 27  1  0  0  0  0
  4  7  2  0  0  0  0
  4 19  1  0  0  0  0
  4 28  1  0  0  0  0
  5 10  2  0  0  0  0
  5 18  1  0  0  0  0
  5 29  1  0  0  0  0
  6 17  2  0  0  0  0
  6 18  1  0  0  0  0
  6 30  1  0  0  0  0
  7  9  1  0  0  0  0
  7 14  1  0  0  0  0
  8  9  2  0  0  0  0
  8 19  1  0  0  0  0
  9 24  1  0  0  0  0
 10 17  1  0  0  0  0
 10 21  1  0  0  0  0
 11 22  1  0  0  0  0
 11 24  1  0  0  0  0
 12 15  1  0  0  0  0
 12 16  2  0  0  0  0
 12 20  1  0  0  0  0
 13 21  1  0  0  0  0
 13 22  1  0  0  0  0
 13 23  2  0  0  0  0
 14 15  1  0  0  0  0
 14 31  1  0  0  0  0
 14 32  1  0  0  0  0
 15 33  1  0  0  0  0
 15 34  1  0  0  0  0
 18 35  1  0  0  0  0
 19 36  1  0  0  0  0
 20 37  1  0  0  0  0
 21 38  1  0  0  0  0
 22 39  1  0  0  0  0
M  END
>  <Chemgauss4 Score>
-5.06589603424072

>  <Number of Confs>
98

$$$$
