GIA-UNK-995-14
 OpenBabel03242009303D

 35 36  0  0  0  0  0  0  0  0999 V2000
   13.0062   -0.8492   22.3159 C   0  0  0  0  0  0  0  0  0  0  0  0
   13.0867    0.1150   23.3206 C   0  0  0  0  0  0  0  0  0  0  0  0
   11.8794   -1.6660   22.2217 C   0  0  0  0  0  0  0  0  0  0  0  0
   12.0404    0.2624   24.2312 C   0  0  0  0  0  0  0  0  0  0  0  0
   10.8331   -1.5186   23.1323 C   0  0  0  0  0  0  0  0  0  0  0  0
   10.9136   -0.5544   24.1371 C   0  0  0  0  0  0  0  0  0  0  0  0
    9.6570   -2.3746   23.0302 C   0  0  0  0  0  0  0  0  0  0  0  0
    8.3858   -5.1664   27.1136 C   0  0  0  0  0  0  0  0  0  0  0  0
    7.5924   -3.1663   25.8552 C   0  0  0  0  0  0  0  0  0  0  0  0
   10.0441   -3.4265   26.4883 C   0  0  0  0  0  0  0  0  0  0  0  0
    7.9637   -3.5448   24.4211 C   0  0  0  0  0  0  0  0  0  0  0  0
   10.3314   -3.8099   25.0375 C   0  0  0  0  0  0  0  0  0  0  0  0
    8.5915   -3.6767   26.8927 C   0  0  0  0  0  0  0  0  0  0  0  0
    6.1326   -5.4862   28.6442 C   0  0  0  0  0  0  0  0  0  0  0  0
    9.3534   -3.1899   24.1357 N   0  0  0  0  0  0  0  0  0  0  0  0
    8.9716   -2.3648   22.0062 O   0  0  0  0  0  0  0  0  0  0  0  0
    8.5255   -5.9992   26.2260 O   0  0  0  0  0  0  0  0  0  0  0  0
    9.9143   -0.4037   25.0183 F   0  0  0  0  0  0  0  0  0  0  0  0
    5.6557   -6.6172   28.0589 F   0  0  0  0  0  0  0  0  0  0  0  0
    7.9303   -5.5819   28.7656 S   0  0  0  0  0  0  0  0  0  0  0  0
   13.8209   -0.9640   21.6071 H   0  0  0  0  0  0  0  0  0  0  0  0
   13.9639    0.7511   23.3938 H   0  0  0  0  0  0  0  0  0  0  0  0
   11.8279   -2.4137   21.4344 H   0  0  0  0  0  0  0  0  0  0  0  0
   12.1028    1.0130   25.0135 H   0  0  0  0  0  0  0  0  0  0  0  0
    7.5449   -2.0716   25.9230 H   0  0  0  0  0  0  0  0  0  0  0  0
    6.5844   -3.5385   26.0753 H   0  0  0  0  0  0  0  0  0  0  0  0
   10.7255   -3.9773   27.1479 H   0  0  0  0  0  0  0  0  0  0  0  0
   10.2694   -2.3602   26.6194 H   0  0  0  0  0  0  0  0  0  0  0  0
    7.8600   -4.6249   24.2656 H   0  0  0  0  0  0  0  0  0  0  0  0
    7.2860   -3.0475   23.7195 H   0  0  0  0  0  0  0  0  0  0  0  0
   11.3537   -3.5200   24.7814 H   0  0  0  0  0  0  0  0  0  0  0  0
   10.2629   -4.8949   24.8981 H   0  0  0  0  0  0  0  0  0  0  0  0
    8.3969   -3.2102   27.8513 H   0  0  0  0  0  0  0  0  0  0  0  0
    5.8295   -4.6354   28.0285 H   0  0  0  0  0  0  0  0  0  0  0  0
    5.6801   -5.4044   29.6358 H   0  0  0  0  0  0  0  0  0  0  0  0
  1  2  1  0  0  0  0
  1  3  2  0  0  0  0
  1 21  1  0  0  0  0
  2  4  2  0  0  0  0
  2 22  1  0  0  0  0
  3  5  1  0  0  0  0
  3 23  1  0  0  0  0
  4  6  1  0  0  0  0
  4 24  1  0  0  0  0
  5  6  2  0  0  0  0
  5  7  1  0  0  0  0
  6 18  1  0  0  0  0
  7 15  1  0  0  0  0
  7 16  2  0  0  0  0
  8 13  1  0  0  0  0
  8 17  2  0  0  0  0
  8 20  1  0  0  0  0
  9 11  1  0  0  0  0
  9 13  1  0  0  0  0
  9 25  1  0  0  0  0
  9 26  1  0  0  0  0
 10 12  1  0  0  0  0
 10 13  1  0  0  0  0
 10 27  1  0  0  0  0
 10 28  1  0  0  0  0
 11 15  1  0  0  0  0
 11 29  1  0  0  0  0
 11 30  1  0  0  0  0
 12 15  1  0  0  0  0
 12 31  1  0  0  0  0
 12 32  1  0  0  0  0
 13 33  1  0  0  0  0
 14 19  1  0  0  0  0
 14 20  1  0  0  0  0
 14 34  1  0  0  0  0
 14 35  1  0  0  0  0
M  END
>  <Chemgauss4 Score>
-5.44075965881348

>  <Number of Confs>
200

$$$$
