DAN-LON-a5f-9
 OpenBabel03242009303D

 40 41  0  0  1  0  0  0  0  0999 V2000
   11.9712    0.2736   24.3930 C   0  0  0  0  0  0  0  0  0  0  0  0
   10.8691   -0.5363   24.1186 C   0  0  0  0  0  0  0  0  0  0  0  0
   13.1127    0.1915   23.5956 C   0  0  0  0  0  0  0  0  0  0  0  0
   12.0502   -1.5104   22.2496 C   0  0  0  0  0  0  0  0  0  0  0  0
   10.9087   -1.4283   23.0470 C   0  0  0  0  0  0  0  0  0  0  0  0
   13.1523   -0.7005   22.5239 C   0  0  0  0  0  0  0  0  0  0  0  0
    6.9445   -5.4027   26.3732 C   0  0  0  0  0  0  0  0  0  0  0  0
    8.9807   -4.0520   26.0111 C   0  0  0  0  0  0  0  0  0  0  0  0
    9.6508   -3.7282   24.6792 C   0  0  0  0  0  0  0  0  0  0  0  0
    6.8636   -3.1821   25.1361 C   0  0  0  0  0  0  0  0  0  0  0  0
    7.5197   -2.8722   23.7622 C   0  0  0  0  0  0  0  0  0  0  0  0
    7.2107   -4.0257   22.7808 C   0  0  0  0  0  0  0  0  0  0  0  0
    6.8381   -1.5916   23.2277 C   0  0  0  0  0  0  0  0  0  0  0  0
    9.7225   -2.3006   22.7531 C   0  0  0  0  0  0  0  0  0  0  0  0
    5.4987   -5.2673   26.7789 C   0  0  0  0  0  0  0  0  0  0  0  0
    7.5509   -4.2686   25.8365 N   0  0  0  0  0  0  0  0  0  0  0  0
    8.9734   -2.6333   23.9658 N   0  0  0  0  0  0  0  0  0  0  0  0
    7.5153   -6.4856   26.5266 O   0  0  0  0  0  0  0  0  0  0  0  0
   14.5614   -0.8022   21.5412 Cl  0  0  0  0  0  0  0  0  0  0  0  0
    5.4400   -4.0299   28.0293 Cl  0  0  0  0  0  0  0  0  0  0  0  0
   11.9400    0.9679   25.2276 H   0  0  0  0  0  0  0  0  0  0  0  0
    9.9839   -0.4657   24.7453 H   0  0  0  0  0  0  0  0  0  0  0  0
   13.9643    0.8286   23.8213 H   0  0  0  0  0  0  0  0  0  0  0  0
   12.0759   -2.2071   21.4149 H   0  0  0  0  0  0  0  0  0  0  0  0
    9.4582   -4.9268   26.4641 H   0  0  0  0  0  0  0  0  0  0  0  0
    9.0991   -3.2167   26.7122 H   0  0  0  0  0  0  0  0  0  0  0  0
   10.6876   -3.4394   24.8933 H   0  0  0  0  0  0  0  0  0  0  0  0
    9.6977   -4.6331   24.0605 H   0  0  0  0  0  0  0  0  0  0  0  0
    6.9220   -2.3054   25.7954 H   0  0  0  0  0  0  0  0  0  0  0  0
    5.8005   -3.3989   25.0055 H   0  0  0  0  0  0  0  0  0  0  0  0
    7.6696   -3.8056   21.8252 H   0  0  0  0  0  0  0  0  0  0  0  0
    6.1375   -4.1104   22.6660 H   0  0  0  0  0  0  0  0  0  0  0  0
    7.6147   -4.9461   23.1831 H   0  0  0  0  0  0  0  0  0  0  0  0
    7.2689   -1.3403   22.2669 H   0  0  0  0  0  0  0  0  0  0  0  0
    7.0051   -0.7861   23.9314 H   0  0  0  0  0  0  0  0  0  0  0  0
    5.7769   -1.7778   23.1215 H   0  0  0  0  0  0  0  0  0  0  0  0
    9.0374   -1.8000   22.0602 H   0  0  0  0  0  0  0  0  0  0  0  0
   10.0323   -3.2397   22.2827 H   0  0  0  0  0  0  0  0  0  0  0  0
    5.1550   -6.2153   27.1771 H   0  0  0  0  0  0  0  0  0  0  0  0
    4.9198   -4.9541   25.9176 H   0  0  0  0  0  0  0  0  0  0  0  0
  1  2  2  0  0  0  0
  1  3  1  0  0  0  0
  1 21  1  0  0  0  0
  2  5  1  0  0  0  0
  2 22  1  0  0  0  0
  3  6  2  0  0  0  0
  3 23  1  0  0  0  0
  4  5  2  0  0  0  0
  4  6  1  0  0  0  0
  4 24  1  0  0  0  0
  5 14  1  0  0  0  0
  6 19  1  0  0  0  0
  7 15  1  0  0  0  0
  7 16  1  0  0  0  0
  7 18  2  0  0  0  0
  8  9  1  0  0  0  0
  8 16  1  0  0  0  0
  8 25  1  0  0  0  0
  8 26  1  0  0  0  0
  9 17  1  0  0  0  0
  9 27  1  0  0  0  0
  9 28  1  0  0  0  0
 10 11  1  0  0  0  0
 10 16  1  0  0  0  0
 10 29  1  0  0  0  0
 10 30  1  0  0  0  0
 11 12  1  0  0  0  0
 11 13  1  0  0  0  0
 11 17  1  0  0  0  0
 12 31  1  0  0  0  0
 12 32  1  0  0  0  0
 12 33  1  0  0  0  0
 13 34  1  0  0  0  0
 13 35  1  0  0  0  0
 13 36  1  0  0  0  0
 14 17  1  0  0  0  0
 14 37  1  0  0  0  0
 14 38  1  0  0  0  0
 15 20  1  0  0  0  0
 15 39  1  0  0  0  0
 15 40  1  0  0  0  0
M  END
>  <Chemgauss4 Score>
-5.17460155487061

>  <Number of Confs>
63

$$$$
