HEI-REL-0c9-6
 OpenBabel03242009303D

 53 56  0  0  1  0  0  0  0  0999 V2000
   12.0408    0.4142   24.0917 C   0  0  0  0  0  0  0  0  0  0  0  0
   11.7573   -0.0714   22.8185 C   0  0  0  0  0  0  0  0  0  0  0  0
   11.6913   -0.3328   25.2161 C   0  0  0  0  0  0  0  0  0  0  0  0
   11.1258   -1.3054   22.6683 C   0  0  0  0  0  0  0  0  0  0  0  0
    5.6063   -0.2808   22.3130 C   0  0  0  0  0  0  0  0  0  0  0  0
    5.4977    0.1965   21.0119 C   0  0  0  0  0  0  0  0  0  0  0  0
    7.2726   -1.2965   20.3404 C   0  0  0  0  0  0  0  0  0  0  0  0
   11.0532   -1.5750   25.0793 C   0  0  0  0  0  0  0  0  0  0  0  0
   10.7729   -2.0678   23.7924 C   0  0  0  0  0  0  0  0  0  0  0  0
    6.5591   -1.2618   22.6359 C   0  0  0  0  0  0  0  0  0  0  0  0
    7.4058   -1.8091   21.6467 C   0  0  0  0  0  0  0  0  0  0  0  0
    6.3345   -0.3083   20.0261 C   0  0  0  0  0  0  0  0  0  0  0  0
    9.1797   -4.2555   27.0122 C   0  0  0  0  0  0  0  0  0  0  0  0
    6.6326   -1.7695   24.0495 C   0  0  0  0  0  0  0  0  0  0  0  0
   10.6944   -2.3499   26.3234 C   0  0  0  0  0  0  0  0  0  0  0  0
    8.0638   -2.1658   24.3633 C   0  0  0  0  0  0  0  0  0  0  0  0
   10.3314   -4.3037   24.8268 C   0  0  0  0  0  0  0  0  0  0  0  0
   10.0815   -3.4017   23.6129 C   0  0  1  0  0  0  0  0  0  0  0  0
    8.5839   -3.2052   23.3612 C   0  0  2  0  0  0  0  0  0  0  0  0
    9.0176   -3.5599   28.3416 C   0  0  0  0  0  0  0  0  0  0  0  0
    8.8244   -3.6688   20.8896 C   0  0  0  0  0  0  0  0  0  0  0  0
    8.3286   -2.8100   21.9626 N   0  0  0  0  0  0  0  0  0  0  0  0
    9.9993   -3.6198   26.0762 N   0  0  0  0  0  0  0  0  0  0  0  0
    4.9665    1.4471   18.5595 N   0  0  0  0  0  0  0  0  0  0  0  0
    8.5932   -5.3217   26.8114 O   0  0  0  0  0  0  0  0  0  0  0  0
    7.4568    0.9927   18.0717 O   0  0  0  0  0  0  0  0  0  0  0  0
    5.7511   -0.7813   17.5321 O   0  0  0  0  0  0  0  0  0  0  0  0
    6.2186    0.2967   18.3920 S   0  0  0  0  0  0  0  0  0  0  0  0
   12.5330    1.3749   24.2105 H   0  0  0  0  0  0  0  0  0  0  0  0
   12.0278    0.5101   21.9420 H   0  0  0  0  0  0  0  0  0  0  0  0
   11.9182    0.0593   26.2045 H   0  0  0  0  0  0  0  0  0  0  0  0
   10.9099   -1.6718   21.6678 H   0  0  0  0  0  0  0  0  0  0  0  0
    4.9424    0.1119   23.0783 H   0  0  0  0  0  0  0  0  0  0  0  0
    4.7591    0.9586   20.7795 H   0  0  0  0  0  0  0  0  0  0  0  0
    7.9107   -1.6594   19.5380 H   0  0  0  0  0  0  0  0  0  0  0  0
    6.2926   -0.9879   24.7260 H   0  0  0  0  0  0  0  0  0  0  0  0
    5.9900   -2.6397   24.1734 H   0  0  0  0  0  0  0  0  0  0  0  0
   11.6123   -2.5995   26.8690 H   0  0  0  0  0  0  0  0  0  0  0  0
   10.0754   -1.7142   26.9635 H   0  0  0  0  0  0  0  0  0  0  0  0
    8.7050   -1.2801   24.3625 H   0  0  0  0  0  0  0  0  0  0  0  0
    8.1144   -2.5940   25.3709 H   0  0  0  0  0  0  0  0  0  0  0  0
    9.7700   -5.2391   24.7292 H   0  0  0  0  0  0  0  0  0  0  0  0
   11.3933   -4.5751   24.8899 H   0  0  0  0  0  0  0  0  0  0  0  0
   10.5167   -3.9056   22.7394 H   0  0  0  0  0  0  0  0  0  0  0  0
    8.0888   -4.1423   23.5931 H   0  0  0  0  0  0  0  0  0  0  0  0
    8.1678   -2.8881   28.2880 H   0  0  0  0  0  0  0  0  0  0  0  0
    9.9208   -3.0002   28.5610 H   0  0  0  0  0  0  0  0  0  0  0  0
    8.8547   -4.3049   29.1133 H   0  0  0  0  0  0  0  0  0  0  0  0
    9.5370   -4.3980   21.3025 H   0  0  0  0  0  0  0  0  0  0  0  0
    7.9806   -4.2021   20.4275 H   0  0  0  0  0  0  0  0  0  0  0  0
    9.3288   -3.0528   20.1306 H   0  0  0  0  0  0  0  0  0  0  0  0
    5.2170    2.4423   18.5114 H   0  0  0  0  0  0  0  0  0  0  0  0
    4.0526    1.2285   18.1445 H   0  0  0  0  0  0  0  0  0  0  0  0
  1  2  1  0  0  0  0
  1  3  2  0  0  0  0
  1 29  1  0  0  0  0
  2  4  2  0  0  0  0
  2 30  1  0  0  0  0
  3  8  1  0  0  0  0
  3 31  1  0  0  0  0
  4  9  1  0  0  0  0
  4 32  1  0  0  0  0
  5  6  2  0  0  0  0
  5 10  1  0  0  0  0
  5 33  1  0  0  0  0
  6 12  1  0  0  0  0
  6 34  1  0  0  0  0
  7 11  1  0  0  0  0
  7 12  2  0  0  0  0
  7 35  1  0  0  0  0
  8  9  2  0  0  0  0
  8 15  1  0  0  0  0
  9 18  1  0  0  0  0
 10 11  2  0  0  0  0
 10 14  1  0  0  0  0
 11 22  1  0  0  0  0
 12 28  1  0  0  0  0
 13 20  1  0  0  0  0
 13 23  1  0  0  0  0
 13 25  2  0  0  0  0
 14 16  1  0  0  0  0
 14 36  1  0  0  0  0
 14 37  1  0  0  0  0
 15 23  1  0  0  0  0
 15 38  1  0  0  0  0
 15 39  1  0  0  0  0
 16 19  1  0  0  0  0
 16 40  1  0  0  0  0
 16 41  1  0  0  0  0
 17 18  1  0  0  0  0
 17 23  1  0  0  0  0
 17 42  1  0  0  0  0
 17 43  1  0  0  0  0
 18 19  1  0  0  0  0
 18 44  1  6  0  0  0
 19 22  1  0  0  0  0
 19 45  1  1  0  0  0
 20 46  1  0  0  0  0
 20 47  1  0  0  0  0
 20 48  1  0  0  0  0
 21 22  1  0  0  0  0
 21 49  1  0  0  0  0
 21 50  1  0  0  0  0
 21 51  1  0  0  0  0
 24 28  1  0  0  0  0
 24 52  1  0  0  0  0
 24 53  1  0  0  0  0
 26 28  2  0  0  0  0
 27 28  2  0  0  0  0
M  END
>  <Chemgauss4 Score>
-5.59746122360229

>  <Number of Confs>
13

$$$$
