ELE-IMP-dfb-6
 OpenBabel03242009303D

 21 22  0  0  0  0  0  0  0  0999 V2000
   10.0355   -0.5457   24.2409 C   0  0  0  0  0  0  0  0  0  0  0  0
   11.0480   -0.2155   23.3354 C   0  0  0  0  0  0  0  0  0  0  0  0
   11.8947   -2.4914   23.3632 C   0  0  0  0  0  0  0  0  0  0  0  0
   10.5220   -4.0567   24.9348 C   0  0  0  0  0  0  0  0  0  0  0  0
   10.8826   -2.8477   24.2765 C   0  0  0  0  0  0  0  0  0  0  0  0
    9.9782   -1.8687   24.6934 C   0  0  0  0  0  0  0  0  0  0  0  0
   11.9643   -1.1717   22.9020 C   0  0  0  0  0  0  0  0  0  0  0  0
    9.4264   -3.7931   25.7241 C   0  0  0  0  0  0  0  0  0  0  0  0
    9.1056   -2.4709   25.5716 N   0  0  0  0  0  0  0  0  0  0  0  0
    9.3025   -6.3085   26.5970 N   0  0  0  0  0  0  0  0  0  0  0  0
    8.6710   -4.3512   28.1512 O   0  0  0  0  0  0  0  0  0  0  0  0
    7.1469   -4.9451   26.2350 O   0  0  0  0  0  0  0  0  0  0  0  0
   12.9237   -0.8250   22.0329 F   0  0  0  0  0  0  0  0  0  0  0  0
    8.4786   -4.8294   26.7962 S   0  0  0  0  0  0  0  0  0  0  0  0
    9.3226    0.1994   24.5779 H   0  0  0  0  0  0  0  0  0  0  0  0
   11.1205    0.8035   22.9640 H   0  0  0  0  0  0  0  0  0  0  0  0
   12.6156   -3.2265   23.0170 H   0  0  0  0  0  0  0  0  0  0  0  0
   11.0126   -5.0162   24.8406 H   0  0  0  0  0  0  0  0  0  0  0  0
    8.3405   -2.0013   26.0364 H   0  0  0  0  0  0  0  0  0  0  0  0
    9.8693   -6.6501   27.3828 H   0  0  0  0  0  0  0  0  0  0  0  0
    8.8282   -7.0537   26.0725 H   0  0  0  0  0  0  0  0  0  0  0  0
  1  2  2  0  0  0  0
  1  6  1  0  0  0  0
  1 15  1  0  0  0  0
  2  7  1  0  0  0  0
  2 16  1  0  0  0  0
  3  5  1  0  0  0  0
  3  7  2  0  0  0  0
  3 17  1  0  0  0  0
  4  5  1  0  0  0  0
  4  8  2  0  0  0  0
  4 18  1  0  0  0  0
  5  6  2  0  0  0  0
  6  9  1  0  0  0  0
  7 13  1  0  0  0  0
  8  9  1  0  0  0  0
  8 14  1  0  0  0  0
  9 19  1  0  0  0  0
 10 14  1  0  0  0  0
 10 20  1  0  0  0  0
 10 21  1  0  0  0  0
 11 14  2  0  0  0  0
 12 14  2  0  0  0  0
M  END
>  <Chemgauss4 Score>
-5.45695781707764

>  <Number of Confs>
4

$$$$
