SAL-INS-1c7-8
 OpenBabel03242009303D

 43 45  0  0  1  0  0  0  0  0999 V2000
    7.1882   -4.8416   28.8021 C   0  0  0  0  0  0  0  0  0  0  0  0
    8.4171   -4.2475   28.5153 C   0  0  0  0  0  0  0  0  0  0  0  0
    6.5142   -5.5612   27.8154 C   0  0  0  0  0  0  0  0  0  0  0  0
    8.9721   -4.3730   27.2417 C   0  0  0  0  0  0  0  0  0  0  0  0
    7.0691   -5.6867   26.5418 C   0  0  0  0  0  0  0  0  0  0  0  0
    7.2034   -2.9961   22.3164 C   0  0  0  0  0  0  0  0  0  0  0  0
    6.3193   -3.8970   21.7229 C   0  0  0  0  0  0  0  0  0  0  0  0
    7.1235   -5.6471   23.1815 C   0  0  0  0  0  0  0  0  0  0  0  0
    8.2981   -5.0926   26.2550 C   0  0  0  0  0  0  0  0  0  0  0  0
    8.0076   -4.7462   23.7750 C   0  0  0  0  0  0  0  0  0  0  0  0
    8.0477   -3.4207   23.3424 C   0  0  0  0  0  0  0  0  0  0  0  0
    6.2793   -5.2225   22.1554 C   0  0  0  0  0  0  0  0  0  0  0  0
   11.1887   -1.8661   24.6213 C   0  0  0  0  0  0  0  0  0  0  0  0
   12.0317   -0.8620   24.3611 C   0  0  0  0  0  0  0  0  0  0  0  0
    8.4651   -1.7423   25.0749 C   0  0  0  0  0  0  0  0  0  0  0  0
   10.4183   -1.3108   22.3757 C   0  0  0  0  0  0  0  0  0  0  0  0
   10.3223   -2.3475   23.4938 C   0  0  2  0  0  0  0  0  0  0  0  0
    8.8999   -5.2290   24.8721 C   0  0  0  0  0  0  0  0  0  0  0  0
    6.9923   -1.9705   25.3661 C   0  0  0  0  0  0  0  0  0  0  0  0
    8.9574   -2.4702   23.9454 N   0  0  0  0  0  0  0  0  0  0  0  0
    9.1187   -0.9577   25.7671 O   0  0  0  0  0  0  0  0  0  0  0  0
   12.9930   -0.9258   21.9454 O   0  0  0  0  0  0  0  0  0  0  0  0
   11.5719    1.0487   22.6481 O   0  0  0  0  0  0  0  0  0  0  0  0
    5.4298   -6.0874   21.5858 F   0  0  0  0  0  0  0  0  0  0  0  0
   11.9011   -0.3607   22.7126 S   0  0  0  0  0  0  0  0  0  0  0  0
    6.0042   -0.8012   24.4652 Cl  0  0  0  0  0  0  0  0  0  0  0  0
    6.7568   -4.7449   29.7942 H   0  0  0  0  0  0  0  0  0  0  0  0
    8.9426   -3.6880   29.2837 H   0  0  0  0  0  0  0  0  0  0  0  0
    5.5579   -6.0248   28.0387 H   0  0  0  0  0  0  0  0  0  0  0  0
    9.9301   -3.9065   27.0272 H   0  0  0  0  0  0  0  0  0  0  0  0
    6.5368   -6.2491   25.7793 H   0  0  0  0  0  0  0  0  0  0  0  0
    7.2257   -1.9655   21.9705 H   0  0  0  0  0  0  0  0  0  0  0  0
    5.6621   -3.5668   20.9239 H   0  0  0  0  0  0  0  0  0  0  0  0
    7.0831   -6.6817   23.5118 H   0  0  0  0  0  0  0  0  0  0  0  0
   11.1270   -2.3179   25.6041 H   0  0  0  0  0  0  0  0  0  0  0  0
   12.7032   -0.4022   25.0737 H   0  0  0  0  0  0  0  0  0  0  0  0
   10.5635   -1.8057   21.4079 H   0  0  0  0  0  0  0  0  0  0  0  0
    9.5551   -0.6415   22.3075 H   0  0  0  0  0  0  0  0  0  0  0  0
   10.6318   -3.3297   23.1259 H   0  0  0  0  0  0  0  0  0  0  0  0
    9.8644   -4.6940   24.8460 H   0  0  0  0  0  0  0  0  0  0  0  0
    9.1788   -6.2831   24.7041 H   0  0  0  0  0  0  0  0  0  0  0  0
    6.7027   -2.9760   25.0510 H   0  0  0  0  0  0  0  0  0  0  0  0
    6.7712   -1.8176   26.4251 H   0  0  0  0  0  0  0  0  0  0  0  0
  1  2  1  0  0  0  0
  1  3  2  0  0  0  0
  1 27  1  0  0  0  0
  2  4  2  0  0  0  0
  2 28  1  0  0  0  0
  3  5  1  0  0  0  0
  3 29  1  0  0  0  0
  4  9  1  0  0  0  0
  4 30  1  0  0  0  0
  5  9  2  0  0  0  0
  5 31  1  0  0  0  0
  6  7  2  0  0  0  0
  6 11  1  0  0  0  0
  6 32  1  0  0  0  0
  7 12  1  0  0  0  0
  7 33  1  0  0  0  0
  8 10  1  0  0  0  0
  8 12  2  0  0  0  0
  8 34  1  0  0  0  0
  9 18  1  0  0  0  0
 10 11  2  0  0  0  0
 10 18  1  0  0  0  0
 11 20  1  0  0  0  0
 12 24  1  0  0  0  0
 13 14  2  0  0  0  0
 13 17  1  0  0  0  0
 13 35  1  0  0  0  0
 14 25  1  0  0  0  0
 14 36  1  0  0  0  0
 15 19  1  0  0  0  0
 15 20  1  0  0  0  0
 15 21  2  0  0  0  0
 16 17  1  0  0  0  0
 16 25  1  0  0  0  0
 16 37  1  0  0  0  0
 16 38  1  0  0  0  0
 17 20  1  0  0  0  0
 17 39  1  6  0  0  0
 18 40  1  0  0  0  0
 18 41  1  0  0  0  0
 19 26  1  0  0  0  0
 19 42  1  0  0  0  0
 19 43  1  0  0  0  0
 22 25  2  0  0  0  0
 23 25  2  0  0  0  0
M  END
>  <Chemgauss4 Score>
-5.49371385574341

>  <Number of Confs>
142

$$$$
