CHR-SOS-f73-1
 OpenBabel03242009303D

 44 46  0  0  0  0  0  0  0  0999 V2000
    6.7447   -1.3255   22.0847 C   0  0  0  0  0  0  0  0  0  0  0  0
    7.7673   -1.8791   21.3144 C   0  0  0  0  0  0  0  0  0  0  0  0
    7.0432   -0.7041   23.2974 C   0  0  0  0  0  0  0  0  0  0  0  0
    5.6504   -4.4352   25.7992 C   0  0  0  0  0  0  0  0  0  0  0  0
    9.0885   -1.8114   21.7568 C   0  0  0  0  0  0  0  0  0  0  0  0
    8.3643   -0.6365   23.7398 C   0  0  0  0  0  0  0  0  0  0  0  0
    6.6363   -3.4821   25.5695 C   0  0  0  0  0  0  0  0  0  0  0  0
    6.0538   -5.7250   26.1049 C   0  0  0  0  0  0  0  0  0  0  0  0
    8.2760   -5.1590   25.9641 C   0  0  0  0  0  0  0  0  0  0  0  0
    9.3870   -1.1902   22.9695 C   0  0  0  0  0  0  0  0  0  0  0  0
    7.9766   -3.8427   25.6516 C   0  0  0  0  0  0  0  0  0  0  0  0
   10.2742   -3.1289   24.9074 C   0  0  0  0  0  0  0  0  0  0  0  0
   13.6183   -0.0966   22.8106 C   0  0  0  0  0  0  0  0  0  0  0  0
   13.2860   -1.5783   22.6781 C   0  0  0  0  0  0  0  0  0  0  0  0
   12.7724    0.5847   23.8801 C   0  0  0  0  0  0  0  0  0  0  0  0
   11.7944   -1.8040   22.4232 C   0  0  0  0  0  0  0  0  0  0  0  0
   11.2763    0.3780   23.6363 C   0  0  0  0  0  0  0  0  0  0  0  0
   10.8652   -1.1143   23.4653 C   0  0  0  0  0  0  0  0  0  0  0  0
   11.0504   -1.8290   24.8303 C   0  0  0  0  0  0  0  0  0  0  0  0
    7.3458   -6.1128   26.1937 N   0  0  0  0  0  0  0  0  0  0  0  0
    9.0025   -2.8950   25.4229 N   0  0  0  0  0  0  0  0  0  0  0  0
   10.7489   -4.2026   24.5521 O   0  0  0  0  0  0  0  0  0  0  0  0
    5.7162   -1.3770   21.7395 H   0  0  0  0  0  0  0  0  0  0  0  0
    7.5352   -2.3619   20.3696 H   0  0  0  0  0  0  0  0  0  0  0  0
    6.2474   -0.2721   23.8969 H   0  0  0  0  0  0  0  0  0  0  0  0
    4.5993   -4.1765   25.7406 H   0  0  0  0  0  0  0  0  0  0  0  0
    9.8787   -2.2457   21.1501 H   0  0  0  0  0  0  0  0  0  0  0  0
    8.5875   -0.1506   24.6860 H   0  0  0  0  0  0  0  0  0  0  0  0
    6.3494   -2.4621   25.3276 H   0  0  0  0  0  0  0  0  0  0  0  0
    5.3234   -6.5053   26.2918 H   0  0  0  0  0  0  0  0  0  0  0  0
    9.3037   -5.5008   26.0428 H   0  0  0  0  0  0  0  0  0  0  0  0
   14.6809    0.0147   23.0638 H   0  0  0  0  0  0  0  0  0  0  0  0
   13.4697    0.4038   21.8461 H   0  0  0  0  0  0  0  0  0  0  0  0
   13.8746   -2.0142   21.8620 H   0  0  0  0  0  0  0  0  0  0  0  0
   13.5837   -2.1023   23.5937 H   0  0  0  0  0  0  0  0  0  0  0  0
   13.0394    0.1810   24.8657 H   0  0  0  0  0  0  0  0  0  0  0  0
   13.0076    1.6568   23.9115 H   0  0  0  0  0  0  0  0  0  0  0  0
   11.5528   -1.4455   21.4129 H   0  0  0  0  0  0  0  0  0  0  0  0
   11.5998   -2.8862   22.4208 H   0  0  0  0  0  0  0  0  0  0  0  0
   10.7144    0.8227   24.4740 H   0  0  0  0  0  0  0  0  0  0  0  0
   10.9861    0.9489   22.7396 H   0  0  0  0  0  0  0  0  0  0  0  0
   10.7108   -1.1620   25.6246 H   0  0  0  0  0  0  0  0  0  0  0  0
   12.1117   -2.0368   24.9768 H   0  0  0  0  0  0  0  0  0  0  0  0
    8.7700   -1.9348   25.6679 H   0  0  0  0  0  0  0  0  0  0  0  0
  1  2  1  0  0  0  0
  1  3  2  0  0  0  0
  1 23  1  0  0  0  0
  2  5  2  0  0  0  0
  2 24  1  0  0  0  0
  3  6  1  0  0  0  0
  3 25  1  0  0  0  0
  4  7  2  0  0  0  0
  4  8  1  0  0  0  0
  4 26  1  0  0  0  0
  5 10  1  0  0  0  0
  5 27  1  0  0  0  0
  6 10  2  0  0  0  0
  6 28  1  0  0  0  0
  7 11  1  0  0  0  0
  7 29  1  0  0  0  0
  8 20  2  0  0  0  0
  8 30  1  0  0  0  0
  9 11  2  0  0  0  0
  9 20  1  0  0  0  0
  9 31  1  0  0  0  0
 10 18  1  0  0  0  0
 11 21  1  0  0  0  0
 12 19  1  0  0  0  0
 12 21  1  0  0  0  0
 12 22  2  0  0  0  0
 13 14  1  0  0  0  0
 13 15  1  0  0  0  0
 13 32  1  0  0  0  0
 13 33  1  0  0  0  0
 14 16  1  0  0  0  0
 14 34  1  0  0  0  0
 14 35  1  0  0  0  0
 15 17  1  0  0  0  0
 15 36  1  0  0  0  0
 15 37  1  0  0  0  0
 16 18  1  0  0  0  0
 16 38  1  0  0  0  0
 16 39  1  0  0  0  0
 17 18  1  0  0  0  0
 17 40  1  0  0  0  0
 17 41  1  0  0  0  0
 18 19  1  0  0  0  0
 19 42  1  0  0  0  0
 19 43  1  0  0  0  0
 21 44  1  0  0  0  0
M  END
>  <Chemgauss4 Score>
-6.33522653579712

>  <Number of Confs>
96

$$$$
