CHR-SOS-e96-6
 OpenBabel03242009303D

 46 48  0  0  0  0  0  0  0  0999 V2000
    7.0786   -0.9864   24.3694 C   0  0  0  0  0  0  0  0  0  0  0  0
    8.4638   -0.8494   24.2800 C   0  0  0  0  0  0  0  0  0  0  0  0
    6.4460   -2.0786   23.7756 C   0  0  0  0  0  0  0  0  0  0  0  0
    7.4704   -4.4731   28.7716 C   0  0  0  0  0  0  0  0  0  0  0  0
    8.5838   -2.8968   23.0028 C   0  0  0  0  0  0  0  0  0  0  0  0
    7.2228   -5.6905   28.1582 C   0  0  0  0  0  0  0  0  0  0  0  0
    8.5618   -5.1621   26.3677 C   0  0  0  0  0  0  0  0  0  0  0  0
    9.2164   -1.8046   23.5967 C   0  0  0  0  0  0  0  0  0  0  0  0
    8.3118   -3.5765   28.1225 C   0  0  0  0  0  0  0  0  0  0  0  0
    8.8720   -3.9198   26.8971 C   0  0  0  0  0  0  0  0  0  0  0  0
    7.1986   -3.0338   23.0923 C   0  0  0  0  0  0  0  0  0  0  0  0
   10.7772   -3.3817   25.3406 C   0  0  0  0  0  0  0  0  0  0  0  0
   12.4251   -1.0083   22.1968 C   0  0  0  0  0  0  0  0  0  0  0  0
   11.5000   -2.2376   22.2171 C   0  0  0  0  0  0  0  0  0  0  0  0
   11.3556   -0.2594   23.0110 C   0  0  0  0  0  0  0  0  0  0  0  0
   10.8077   -1.6466   23.4934 C   0  0  0  0  0  0  0  0  0  0  0  0
    8.5955   -2.2564   28.7609 C   0  0  0  0  0  0  0  0  0  0  0  0
   11.4415   -2.1274   24.8066 C   0  0  0  0  0  0  0  0  0  0  0  0
    7.7487   -6.0595   26.9687 N   0  0  0  0  0  0  0  0  0  0  0  0
    6.4400   -5.5312   23.6329 N   0  0  0  0  0  0  0  0  0  0  0  0
    9.7343   -3.0422   26.1978 N   0  0  0  0  0  0  0  0  0  0  0  0
   11.1480   -4.5080   25.0270 O   0  0  0  0  0  0  0  0  0  0  0  0
    5.0231   -4.0404   22.0786 O   0  0  0  0  0  0  0  0  0  0  0  0
    7.2513   -4.8958   21.2717 O   0  0  0  0  0  0  0  0  0  0  0  0
    6.4072   -4.4020   22.3509 S   0  0  0  0  0  0  0  0  0  0  0  0
    6.4926   -0.2430   24.9021 H   0  0  0  0  0  0  0  0  0  0  0  0
    8.9495    0.0043   24.7448 H   0  0  0  0  0  0  0  0  0  0  0  0
    5.3662   -2.1757   23.8516 H   0  0  0  0  0  0  0  0  0  0  0  0
    7.0173   -4.2357   29.7282 H   0  0  0  0  0  0  0  0  0  0  0  0
    9.1737   -3.6395   22.4716 H   0  0  0  0  0  0  0  0  0  0  0  0
    6.5733   -6.4248   28.6233 H   0  0  0  0  0  0  0  0  0  0  0  0
    8.9684   -5.4878   25.4148 H   0  0  0  0  0  0  0  0  0  0  0  0
   13.3699   -1.1541   22.7320 H   0  0  0  0  0  0  0  0  0  0  0  0
   12.6413   -0.5958   21.2079 H   0  0  0  0  0  0  0  0  0  0  0  0
   10.8452   -2.3002   21.3389 H   0  0  0  0  0  0  0  0  0  0  0  0
   12.0045   -3.2003   22.3407 H   0  0  0  0  0  0  0  0  0  0  0  0
   11.7412    0.4069   23.7882 H   0  0  0  0  0  0  0  0  0  0  0  0
   10.6551    0.3075   22.3854 H   0  0  0  0  0  0  0  0  0  0  0  0
    9.4771   -2.3292   29.4082 H   0  0  0  0  0  0  0  0  0  0  0  0
    8.7792   -1.4822   28.0057 H   0  0  0  0  0  0  0  0  0  0  0  0
    7.7449   -1.9175   29.3652 H   0  0  0  0  0  0  0  0  0  0  0  0
   11.3550   -1.3334   25.5511 H   0  0  0  0  0  0  0  0  0  0  0  0
   12.5003   -2.3304   24.6336 H   0  0  0  0  0  0  0  0  0  0  0  0
    5.5541   -5.7506   24.1046 H   0  0  0  0  0  0  0  0  0  0  0  0
    7.0774   -6.3328   23.5530 H   0  0  0  0  0  0  0  0  0  0  0  0
    9.5605   -2.0506   26.3480 H   0  0  0  0  0  0  0  0  0  0  0  0
  1  2  2  0  0  0  0
  1  3  1  0  0  0  0
  1 26  1  0  0  0  0
  2  8  1  0  0  0  0
  2 27  1  0  0  0  0
  3 11  2  0  0  0  0
  3 28  1  0  0  0  0
  4  6  2  0  0  0  0
  4  9  1  0  0  0  0
  4 29  1  0  0  0  0
  5  8  2  0  0  0  0
  5 11  1  0  0  0  0
  5 30  1  0  0  0  0
  6 19  1  0  0  0  0
  6 31  1  0  0  0  0
  7 10  1  0  0  0  0
  7 19  2  0  0  0  0
  7 32  1  0  0  0  0
  8 16  1  0  0  0  0
  9 10  2  0  0  0  0
  9 17  1  0  0  0  0
 10 21  1  0  0  0  0
 11 25  1  0  0  0  0
 12 18  1  0  0  0  0
 12 21  1  0  0  0  0
 12 22  2  0  0  0  0
 13 14  1  0  0  0  0
 13 15  1  0  0  0  0
 13 33  1  0  0  0  0
 13 34  1  0  0  0  0
 14 16  1  0  0  0  0
 14 35  1  0  0  0  0
 14 36  1  0  0  0  0
 15 16  1  0  0  0  0
 15 37  1  0  0  0  0
 15 38  1  0  0  0  0
 16 18  1  0  0  0  0
 17 39  1  0  0  0  0
 17 40  1  0  0  0  0
 17 41  1  0  0  0  0
 18 42  1  0  0  0  0
 18 43  1  0  0  0  0
 20 25  1  0  0  0  0
 20 44  1  0  0  0  0
 20 45  1  0  0  0  0
 21 46  1  0  0  0  0
 23 25  2  0  0  0  0
 24 25  2  0  0  0  0
M  END
>  <Chemgauss4 Score>
-6.18654346466064

>  <Number of Confs>
200

$$$$
