NIM-UNI-36e-2
 OpenBabel03242009303D

 47 50  0  0  1  0  0  0  0  0999 V2000
   12.1788    0.8227   22.9082 C   0  0  0  0  0  0  0  0  0  0  0  0
   12.7328   -0.4380   23.1304 C   0  0  0  0  0  0  0  0  0  0  0  0
   10.8553    0.9378   22.4830 C   0  0  0  0  0  0  0  0  0  0  0  0
    8.2503   -6.5319   28.0156 C   0  0  0  0  0  0  0  0  0  0  0  0
   11.9634   -1.5836   22.9272 C   0  0  0  0  0  0  0  0  0  0  0  0
   10.0859   -0.2078   22.2798 C   0  0  0  0  0  0  0  0  0  0  0  0
    8.3024   -5.6611   26.9329 C   0  0  0  0  0  0  0  0  0  0  0  0
    8.0874   -5.9869   29.2790 C   0  0  0  0  0  0  0  0  0  0  0  0
    8.0312   -3.8465   28.4461 C   0  0  0  0  0  0  0  0  0  0  0  0
   10.6399   -1.4685   22.5019 C   0  0  0  0  0  0  0  0  0  0  0  0
    8.1916   -4.2912   27.1437 C   0  0  0  0  0  0  0  0  0  0  0  0
    8.7408   -2.0241   26.1359 C   0  0  0  0  0  0  0  0  0  0  0  0
    5.8415   -4.7069   24.6305 C   0  0  0  0  0  0  0  0  0  0  0  0
    7.4000   -4.8352   22.6395 C   0  0  0  0  0  0  0  0  0  0  0  0
    7.5461   -3.4906   21.8747 C   0  0  0  0  0  0  0  0  0  0  0  0
    8.0265   -2.4006   23.9500 C   0  0  1  0  0  0  0  0  0  0  0  0
    8.1460   -3.7446   24.6567 C   0  0  1  0  0  0  0  0  0  0  0  0
    4.7356   -5.1256   23.6947 C   0  0  0  0  0  0  0  0  0  0  0  0
    9.8112   -2.7011   22.2828 C   0  0  0  0  0  0  0  0  0  0  0  0
    7.9761   -4.6619   29.5230 N   0  0  0  0  0  0  0  0  0  0  0  0
    8.7548   -1.5166   24.8062 N   0  0  0  0  0  0  0  0  0  0  0  0
    8.2416   -3.3754   26.0562 N   0  0  0  0  0  0  0  0  0  0  0  0
    7.1131   -4.5877   24.0658 N   0  0  0  0  0  0  0  0  0  0  0  0
    8.3924   -2.4579   22.5338 N   0  0  0  0  0  0  0  0  0  0  0  0
    9.1307   -1.4014   27.1150 O   0  0  0  0  0  0  0  0  0  0  0  0
    5.5799   -4.5051   25.8182 O   0  0  0  0  0  0  0  0  0  0  0  0
   12.7777    1.7146   23.0677 H   0  0  0  0  0  0  0  0  0  0  0  0
   13.7630   -0.5278   23.4625 H   0  0  0  0  0  0  0  0  0  0  0  0
   10.4233    1.9192   22.3109 H   0  0  0  0  0  0  0  0  0  0  0  0
    8.3345   -7.6035   27.8748 H   0  0  0  0  0  0  0  0  0  0  0  0
   12.4035   -2.5617   23.1026 H   0  0  0  0  0  0  0  0  0  0  0  0
    9.0556   -0.1084   21.9483 H   0  0  0  0  0  0  0  0  0  0  0  0
    8.4295   -6.0602   25.9300 H   0  0  0  0  0  0  0  0  0  0  0  0
    8.0415   -6.6236   30.1563 H   0  0  0  0  0  0  0  0  0  0  0  0
    7.9388   -2.7887   28.6741 H   0  0  0  0  0  0  0  0  0  0  0  0
    6.6232   -5.4370   22.1642 H   0  0  0  0  0  0  0  0  0  0  0  0
    8.3350   -5.4052   22.5857 H   0  0  0  0  0  0  0  0  0  0  0  0
    7.9019   -3.6828   20.8550 H   0  0  0  0  0  0  0  0  0  0  0  0
    6.5424   -3.0602   21.7576 H   0  0  0  0  0  0  0  0  0  0  0  0
    6.9912   -2.0317   24.0114 H   0  0  0  0  0  0  0  0  0  0  0  0
    9.1076   -4.2328   24.4458 H   0  0  0  0  0  0  0  0  0  0  0  0
    4.6641   -6.2082   23.6917 H   0  0  0  0  0  0  0  0  0  0  0  0
    4.9602   -4.7659   22.6957 H   0  0  0  0  0  0  0  0  0  0  0  0
    3.8002   -4.6929   24.0346 H   0  0  0  0  0  0  0  0  0  0  0  0
    9.9151   -3.0581   21.2524 H   0  0  0  0  0  0  0  0  0  0  0  0
   10.1334   -3.5136   22.9426 H   0  0  0  0  0  0  0  0  0  0  0  0
    9.2114   -0.6593   24.5111 H   0  0  0  0  0  0  0  0  0  0  0  0
  1  2  1  0  0  0  0
  1  3  2  0  0  0  0
  1 27  1  0  0  0  0
  2  5  2  0  0  0  0
  2 28  1  0  0  0  0
  3  6  1  0  0  0  0
  3 29  1  0  0  0  0
  4  7  2  0  0  0  0
  4  8  1  0  0  0  0
  4 30  1  0  0  0  0
  5 10  1  0  0  0  0
  5 31  1  0  0  0  0
  6 10  2  0  0  0  0
  6 32  1  0  0  0  0
  7 11  1  0  0  0  0
  7 33  1  0  0  0  0
  8 20  2  0  0  0  0
  8 34  1  0  0  0  0
  9 11  2  0  0  0  0
  9 20  1  0  0  0  0
  9 35  1  0  0  0  0
 10 19  1  0  0  0  0
 11 22  1  0  0  0  0
 12 21  1  0  0  0  0
 12 22  1  0  0  0  0
 12 25  2  0  0  0  0
 13 18  1  0  0  0  0
 13 23  1  0  0  0  0
 13 26  2  0  0  0  0
 14 15  1  0  0  0  0
 14 23  1  0  0  0  0
 14 36  1  0  0  0  0
 14 37  1  0  0  0  0
 15 24  1  0  0  0  0
 15 38  1  0  0  0  0
 15 39  1  0  0  0  0
 16 17  1  0  0  0  0
 16 21  1  0  0  0  0
 16 24  1  0  0  0  0
 16 40  1  1  0  0  0
 17 22  1  0  0  0  0
 17 23  1  0  0  0  0
 17 41  1  6  0  0  0
 18 42  1  0  0  0  0
 18 43  1  0  0  0  0
 18 44  1  0  0  0  0
 19 24  1  0  0  0  0
 19 45  1  0  0  0  0
 19 46  1  0  0  0  0
 21 47  1  0  0  0  0
M  END
>  <Chemgauss4 Score>
-4.94093799591064

>  <Number of Confs>
6

$$$$
