NAU-LAT-ec9-5
 OpenBabel03242009303D

 38 41  0  0  1  0  0  0  0  0999 V2000
    8.4241   -2.2635   29.0655 C   0  0  0  0  0  0  0  0  0  0  0  0
    8.8703   -3.5471   28.7512 C   0  0  0  0  0  0  0  0  0  0  0  0
    8.3725   -1.2813   28.0763 C   0  0  0  0  0  0  0  0  0  0  0  0
    6.2788   -3.7563   23.1950 C   0  0  0  0  0  0  0  0  0  0  0  0
   11.9877   -0.2117   24.5148 C   0  0  0  0  0  0  0  0  0  0  0  0
    6.5090   -5.0782   22.7774 C   0  0  0  0  0  0  0  0  0  0  0  0
   11.9334   -0.0324   23.1326 C   0  0  0  0  0  0  0  0  0  0  0  0
    9.2650   -3.8486   27.4477 C   0  0  0  0  0  0  0  0  0  0  0  0
    8.7673   -1.5828   26.7729 C   0  0  0  0  0  0  0  0  0  0  0  0
    7.2433   -3.0582   23.9289 C   0  0  0  0  0  0  0  0  0  0  0  0
   11.2509   -1.2328   25.1151 C   0  0  0  0  0  0  0  0  0  0  0  0
    7.7060   -5.7237   23.0878 C   0  0  0  0  0  0  0  0  0  0  0  0
   11.1423   -0.8741   22.3507 C   0  0  0  0  0  0  0  0  0  0  0  0
    9.2135   -2.8664   26.4586 C   0  0  0  0  0  0  0  0  0  0  0  0
    8.4360   -3.6993   24.2326 C   0  0  0  0  0  0  0  0  0  0  0  0
   10.4598   -2.0744   24.3332 C   0  0  0  0  0  0  0  0  0  0  0  0
    8.6423   -5.0126   23.8133 C   0  0  0  0  0  0  0  0  0  0  0  0
   10.4055   -1.8951   22.9510 C   0  0  0  0  0  0  0  0  0  0  0  0
   10.5665   -4.4817   24.9603 C   0  0  0  0  0  0  0  0  0  0  0  0
    9.6505   -3.1994   25.0157 C   0  0  1  0  0  0  0  0  0  0  0  0
    9.8843   -5.4618   24.2359 N   0  0  0  0  0  0  0  0  0  0  0  0
   11.6772   -4.5962   25.4605 O   0  0  0  0  0  0  0  0  0  0  0  0
    9.6371   -2.7078   22.1729 O   0  0  0  0  0  0  0  0  0  0  0  0
    8.1155   -2.0293   30.0801 H   0  0  0  0  0  0  0  0  0  0  0  0
    8.9095   -4.3123   29.5210 H   0  0  0  0  0  0  0  0  0  0  0  0
    8.0241   -0.2821   28.3204 H   0  0  0  0  0  0  0  0  0  0  0  0
    5.3387   -3.2719   22.9448 H   0  0  0  0  0  0  0  0  0  0  0  0
   12.6032    0.4438   25.1243 H   0  0  0  0  0  0  0  0  0  0  0  0
    5.7450   -5.6014   22.2088 H   0  0  0  0  0  0  0  0  0  0  0  0
   12.5065    0.7632   22.6658 H   0  0  0  0  0  0  0  0  0  0  0  0
    9.6115   -4.8514   27.2121 H   0  0  0  0  0  0  0  0  0  0  0  0
    8.7238   -0.8112   26.0088 H   0  0  0  0  0  0  0  0  0  0  0  0
    7.0563   -2.0386   24.2489 H   0  0  0  0  0  0  0  0  0  0  0  0
   11.2988   -1.3633   26.1930 H   0  0  0  0  0  0  0  0  0  0  0  0
    7.8849   -6.7447   22.7702 H   0  0  0  0  0  0  0  0  0  0  0  0
   11.1040   -0.7294   21.2744 H   0  0  0  0  0  0  0  0  0  0  0  0
   10.2395   -6.3909   24.0432 H   0  0  0  0  0  0  0  0  0  0  0  0
    9.7118   -2.4481   21.2413 H   0  0  0  0  0  0  0  0  0  0  0  0
  1  2  1  0  0  0  0
  1  3  2  0  0  0  0
  1 24  1  0  0  0  0
  2  8  2  0  0  0  0
  2 25  1  0  0  0  0
  3  9  1  0  0  0  0
  3 26  1  0  0  0  0
  4  6  1  0  0  0  0
  4 10  2  0  0  0  0
  4 27  1  0  0  0  0
  5  7  1  0  0  0  0
  5 11  2  0  0  0  0
  5 28  1  0  0  0  0
  6 12  2  0  0  0  0
  6 29  1  0  0  0  0
  7 13  2  0  0  0  0
  7 30  1  0  0  0  0
  8 14  1  0  0  0  0
  8 31  1  0  0  0  0
  9 14  2  0  0  0  0
  9 32  1  0  0  0  0
 10 15  1  0  0  0  0
 10 33  1  0  0  0  0
 11 16  1  0  0  0  0
 11 34  1  0  0  0  0
 12 17  1  0  0  0  0
 12 35  1  0  0  0  0
 13 18  1  0  0  0  0
 13 36  1  0  0  0  0
 15 17  2  0  0  0  0
 15 20  1  0  0  0  0
 16 18  2  0  0  0  0
 16 20  1  0  0  0  0
 17 21  1  0  0  0  0
 18 23  1  0  0  0  0
 19 20  1  0  0  0  0
 19 21  1  0  0  0  0
 19 22  2  0  0  0  0
 20 14  1  1  0  0  0
 21 37  1  0  0  0  0
 23 38  1  0  0  0  0
M  END
>  <Chemgauss4 Score>
-5.9029688835144

>  <Number of Confs>
2

$$$$
