DAR-DIA-842-16
 OpenBabel03242009303D

 27 28  0  0  0  0  0  0  0  0999 V2000
   11.7964   -5.8213   26.5798 C   0  0  0  0  0  0  0  0  0  0  0  0
   11.4786   -4.7355   25.7715 C   0  0  0  0  0  0  0  0  0  0  0  0
   10.8171   -6.7774   26.7961 C   0  0  0  0  0  0  0  0  0  0  0  0
    9.3011   -5.6493   25.4895 C   0  0  0  0  0  0  0  0  0  0  0  0
   11.7533   -0.0477   23.0534 C   0  0  0  0  0  0  0  0  0  0  0  0
   10.2092   -4.6403   25.2121 C   0  0  0  0  0  0  0  0  0  0  0  0
   12.2484   -1.1162   22.3478 C   0  0  0  0  0  0  0  0  0  0  0  0
   10.1686   -1.3990   22.7609 C   0  0  0  0  0  0  0  0  0  0  0  0
    8.9438   -3.5380   23.3336 C   0  0  0  0  0  0  0  0  0  0  0  0
   13.5602   -1.4758   21.8004 C   0  0  0  0  0  0  0  0  0  0  0  0
    8.8656   -2.1531   22.7106 C   0  0  0  0  0  0  0  0  0  0  0  0
    9.5732   -6.7191   26.2699 N   0  0  0  0  0  0  0  0  0  0  0  0
   10.4200   -0.2345   23.3149 N   0  0  0  0  0  0  0  0  0  0  0  0
    9.8619   -3.5644   24.3988 N   0  0  0  0  0  0  0  0  0  0  0  0
    8.2736   -4.4802   22.9235 O   0  0  0  0  0  0  0  0  0  0  0  0
   11.2288   -1.9983   22.1529 O   0  0  0  0  0  0  0  0  0  0  0  0
   12.7796   -5.9161   27.0263 H   0  0  0  0  0  0  0  0  0  0  0  0
   12.2270   -3.9700   25.5842 H   0  0  0  0  0  0  0  0  0  0  0  0
   11.0149   -7.6430   27.4197 H   0  0  0  0  0  0  0  0  0  0  0  0
    8.2948   -5.6308   25.0817 H   0  0  0  0  0  0  0  0  0  0  0  0
   12.2775    0.8367   23.3841 H   0  0  0  0  0  0  0  0  0  0  0  0
   14.1631   -2.0473   22.5304 H   0  0  0  0  0  0  0  0  0  0  0  0
   13.4824   -2.0941   20.8854 H   0  0  0  0  0  0  0  0  0  0  0  0
   14.1550   -0.5886   21.5086 H   0  0  0  0  0  0  0  0  0  0  0  0
    8.0872   -1.5782   23.2282 H   0  0  0  0  0  0  0  0  0  0  0  0
    8.5397   -2.2532   21.6675 H   0  0  0  0  0  0  0  0  0  0  0  0
   10.3372   -2.6763   24.6030 H   0  0  0  0  0  0  0  0  0  0  0  0
  1  2  2  0  0  0  0
  1  3  1  0  0  0  0
  1 17  1  0  0  0  0
  2  6  1  0  0  0  0
  2 18  1  0  0  0  0
  3 12  2  0  0  0  0
  3 19  1  0  0  0  0
  4  6  2  0  0  0  0
  4 12  1  0  0  0  0
  4 20  1  0  0  0  0
  5  7  2  0  0  0  0
  5 13  1  0  0  0  0
  5 21  1  0  0  0  0
  6 14  1  0  0  0  0
  7 10  1  0  0  0  0
  7 16  1  0  0  0  0
  8 11  1  0  0  0  0
  8 13  2  0  0  0  0
  8 16  1  0  0  0  0
  9 11  1  0  0  0  0
  9 14  1  0  0  0  0
  9 15  2  0  0  0  0
 10 22  1  0  0  0  0
 10 23  1  0  0  0  0
 10 24  1  0  0  0  0
 11 25  1  0  0  0  0
 11 26  1  0  0  0  0
 14 27  1  0  0  0  0
M  END
>  <Chemgauss4 Score>
-4.675537109375

>  <Number of Confs>
89

$$$$
