SAL-INS-1c7-1
 OpenBabel03242009303D

 52 54  0  0  1  0  0  0  0  0999 V2000
   13.9034   -0.1608   23.3509 C   0  0  0  0  0  0  0  0  0  0  0  0
   13.5722   -0.6731   22.0965 C   0  0  0  0  0  0  0  0  0  0  0  0
   12.9835   -0.2290   24.3972 C   0  0  0  0  0  0  0  0  0  0  0  0
    9.8673   -4.3785   25.6772 C   0  0  0  0  0  0  0  0  0  0  0  0
   12.3211   -1.2537   21.8885 C   0  0  0  0  0  0  0  0  0  0  0  0
   11.7324   -0.8095   24.1892 C   0  0  0  0  0  0  0  0  0  0  0  0
   10.3501   -3.6261   24.6059 C   0  0  0  0  0  0  0  0  0  0  0  0
    7.6677   -3.4579   25.3300 C   0  0  0  0  0  0  0  0  0  0  0  0
    8.5288   -4.2884   26.0442 C   0  0  0  0  0  0  0  0  0  0  0  0
   11.4011   -1.3219   22.9348 C   0  0  0  0  0  0  0  0  0  0  0  0
    9.5039   -2.7580   23.8935 C   0  0  0  0  0  0  0  0  0  0  0  0
    8.1380   -2.7057   24.2422 C   0  0  0  0  0  0  0  0  0  0  0  0
    8.0294   -5.0590   27.1714 C   0  0  0  0  0  0  0  0  0  0  0  0
    6.9025   -1.5129   21.0463 C   0  0  0  0  0  0  0  0  0  0  0  0
    7.1631   -1.8360   23.4872 C   0  0  0  0  0  0  0  0  0  0  0  0
    9.0465   -0.8668   22.2454 C   0  0  0  0  0  0  0  0  0  0  0  0
   10.0348   -1.9553   22.7083 C   0  0  1  0  0  0  0  0  0  0  0  0
    6.9152   -6.2424   29.7244 C   0  0  0  0  0  0  0  0  0  0  0  0
    5.1905   -5.2152   28.2026 C   0  0  0  0  0  0  0  0  0  0  0  0
    7.9073   -3.0463   28.6599 C   0  0  0  0  0  0  0  0  0  0  0  0
    7.1532   -0.4964   19.9612 C   0  0  0  0  0  0  0  0  0  0  0  0
    6.4049   -4.9601   29.0832 C   0  0  0  0  0  0  0  0  0  0  0  0
    7.6880   -1.4068   22.1926 N   0  0  0  0  0  0  0  0  0  0  0  0
    7.4676   -4.3776   28.2666 N   0  0  0  0  0  0  0  0  0  0  0  0
    8.1184   -6.2915   27.0926 O   0  0  0  0  0  0  0  0  0  0  0  0
    6.0366   -2.3753   20.8780 O   0  0  0  0  0  0  0  0  0  0  0  0
    5.6300   -0.2892   19.1047 Cl  0  0  0  0  0  0  0  0  0  0  0  0
   14.8782    0.2900   23.5131 H   0  0  0  0  0  0  0  0  0  0  0  0
   14.2888   -0.6211   21.2820 H   0  0  0  0  0  0  0  0  0  0  0  0
   13.2415    0.1688   25.3742 H   0  0  0  0  0  0  0  0  0  0  0  0
   10.5476   -5.0337   26.2164 H   0  0  0  0  0  0  0  0  0  0  0  0
   12.0716   -1.6501   20.9077 H   0  0  0  0  0  0  0  0  0  0  0  0
   11.0220   -0.8582   25.0102 H   0  0  0  0  0  0  0  0  0  0  0  0
   11.3976   -3.7218   24.3236 H   0  0  0  0  0  0  0  0  0  0  0  0
    6.6206   -3.3879   25.6179 H   0  0  0  0  0  0  0  0  0  0  0  0
    6.2550   -2.4040   23.2891 H   0  0  0  0  0  0  0  0  0  0  0  0
    6.9217   -0.9717   24.0987 H   0  0  0  0  0  0  0  0  0  0  0  0
    9.0999    0.0067   22.8926 H   0  0  0  0  0  0  0  0  0  0  0  0
    9.2929   -0.5470   21.2313 H   0  0  0  0  0  0  0  0  0  0  0  0
   10.1596   -2.6524   21.8406 H   0  0  0  0  0  0  0  0  0  0  0  0
    7.1827   -6.9804   28.9612 H   0  0  0  0  0  0  0  0  0  0  0  0
    7.8000   -6.0555   30.3434 H   0  0  0  0  0  0  0  0  0  0  0  0
    6.1494   -6.6852   30.3706 H   0  0  0  0  0  0  0  0  0  0  0  0
    5.4282   -5.9361   27.4127 H   0  0  0  0  0  0  0  0  0  0  0  0
    4.8530   -4.2890   27.7259 H   0  0  0  0  0  0  0  0  0  0  0  0
    4.3551   -5.6250   28.7814 H   0  0  0  0  0  0  0  0  0  0  0  0
    7.3066   -2.2906   28.1327 H   0  0  0  0  0  0  0  0  0  0  0  0
    7.7796   -2.9240   29.7456 H   0  0  0  0  0  0  0  0  0  0  0  0
    8.9682   -2.9187   28.3988 H   0  0  0  0  0  0  0  0  0  0  0  0
    7.9100   -0.8819   19.2879 H   0  0  0  0  0  0  0  0  0  0  0  0
    7.4536    0.4385   20.4195 H   0  0  0  0  0  0  0  0  0  0  0  0
    6.1439   -4.2377   29.8643 H   0  0  0  0  0  0  0  0  0  0  0  0
  1  2  1  0  0  0  0
  1  3  2  0  0  0  0
  1 28  1  0  0  0  0
  2  5  2  0  0  0  0
  2 29  1  0  0  0  0
  3  6  1  0  0  0  0
  3 30  1  0  0  0  0
  4  7  2  0  0  0  0
  4  9  1  0  0  0  0
  4 31  1  0  0  0  0
  5 10  1  0  0  0  0
  5 32  1  0  0  0  0
  6 10  2  0  0  0  0
  6 33  1  0  0  0  0
  7 11  1  0  0  0  0
  7 34  1  0  0  0  0
  8  9  2  0  0  0  0
  8 12  1  0  0  0  0
  8 35  1  0  0  0  0
  9 13  1  0  0  0  0
 10 17  1  0  0  0  0
 11 12  2  0  0  0  0
 11 17  1  0  0  0  0
 12 15  1  0  0  0  0
 13 24  1  0  0  0  0
 13 25  2  0  0  0  0
 14 21  1  0  0  0  0
 14 23  1  0  0  0  0
 14 26  2  0  0  0  0
 15 23  1  0  0  0  0
 15 36  1  0  0  0  0
 15 37  1  0  0  0  0
 16 17  1  0  0  0  0
 16 23  1  0  0  0  0
 16 38  1  0  0  0  0
 16 39  1  0  0  0  0
 17 40  1  6  0  0  0
 18 22  1  0  0  0  0
 18 41  1  0  0  0  0
 18 42  1  0  0  0  0
 18 43  1  0  0  0  0
 19 22  1  0  0  0  0
 19 44  1  0  0  0  0
 19 45  1  0  0  0  0
 19 46  1  0  0  0  0
 20 24  1  0  0  0  0
 20 47  1  0  0  0  0
 20 48  1  0  0  0  0
 20 49  1  0  0  0  0
 21 27  1  0  0  0  0
 21 50  1  0  0  0  0
 21 51  1  0  0  0  0
 22 24  1  0  0  0  0
 22 52  1  0  0  0  0
M  END
>  <Chemgauss4 Score>
-6.4930248260498

>  <Number of Confs>
83

$$$$
