ROB-UNI-b2e-8
 OpenBabel03242009303D

 49 50  0  0  1  0  0  0  0  0999 V2000
   10.3762   -0.6076   27.5309 C   0  0  0  0  0  0  0  0  0  0  0  0
    9.3456   -2.5648   26.4908 C   0  0  0  0  0  0  0  0  0  0  0  0
   10.1628   -0.7474   25.1028 C   0  0  0  0  0  0  0  0  0  0  0  0
    8.1510   -4.6483   23.7353 C   0  0  0  0  0  0  0  0  0  0  0  0
    9.9574   -1.3128   26.3597 C   0  0  0  0  0  0  0  0  0  0  0  0
    8.9358   -3.2541   25.3321 C   0  0  0  0  0  0  0  0  0  0  0  0
    9.7649   -1.4126   23.9395 C   0  0  0  0  0  0  0  0  0  0  0  0
    8.3022   -4.5061   25.0954 C   0  0  0  0  0  0  0  0  0  0  0  0
    9.1545   -2.6633   24.0858 C   0  0  0  0  0  0  0  0  0  0  0  0
    5.1175   -3.7839   25.3470 C   0  0  0  0  0  0  0  0  0  0  0  0
   12.4874   -0.9719   22.6256 C   0  0  0  0  0  0  0  0  0  0  0  0
    3.9160   -3.8857   24.4671 C   0  0  0  0  0  0  0  0  0  0  0  0
   13.6433   -1.4852   21.8328 C   0  0  0  0  0  0  0  0  0  0  0  0
    8.8218   -4.6333   20.9370 C   0  0  0  0  0  0  0  0  0  0  0  0
    9.9780    0.7772   22.6892 C   0  0  0  0  0  0  0  0  0  0  0  0
    7.8783   -5.4842   26.1178 C   0  0  0  0  0  0  0  0  0  0  0  0
    8.6801   -3.3285   21.7018 C   0  0  0  0  0  0  0  0  0  0  0  0
    6.5896   -5.0935   26.8638 C   0  0  0  0  0  0  0  0  0  0  0  0
   10.0103   -0.7559   22.6204 C   0  0  1  0  0  0  0  0  0  0  0  0
   10.7162   -0.0353   28.4815 N   0  0  0  0  0  0  0  0  0  0  0  0
    8.6683   -3.5319   23.1348 N   0  0  0  0  0  0  0  0  0  0  0  0
    5.4653   -4.9690   25.9753 N   0  0  0  0  0  0  0  0  0  0  0  0
   11.2653   -1.1753   22.0221 N   0  0  0  0  0  0  0  0  0  0  0  0
    5.6981   -2.7102   25.4550 O   0  0  0  0  0  0  0  0  0  0  0  0
   12.6887   -0.4318   23.7071 O   0  0  0  0  0  0  0  0  0  0  0  0
    9.1844   -3.0062   27.4713 H   0  0  0  0  0  0  0  0  0  0  0  0
   10.6390    0.2286   25.0182 H   0  0  0  0  0  0  0  0  0  0  0  0
    7.7189   -5.4477   23.1475 H   0  0  0  0  0  0  0  0  0  0  0  0
    2.9798   -3.6719   25.0074 H   0  0  0  0  0  0  0  0  0  0  0  0
    3.9425   -3.1649   23.6342 H   0  0  0  0  0  0  0  0  0  0  0  0
    3.7598   -4.8686   23.9945 H   0  0  0  0  0  0  0  0  0  0  0  0
   14.0493   -0.7281   21.1428 H   0  0  0  0  0  0  0  0  0  0  0  0
   14.4914   -1.7827   22.4702 H   0  0  0  0  0  0  0  0  0  0  0  0
   13.4305   -2.3651   21.2048 H   0  0  0  0  0  0  0  0  0  0  0  0
    9.7483   -5.1512   21.2063 H   0  0  0  0  0  0  0  0  0  0  0  0
    8.8387   -4.4416   19.8597 H   0  0  0  0  0  0  0  0  0  0  0  0
    7.9873   -5.3094   21.1506 H   0  0  0  0  0  0  0  0  0  0  0  0
   10.7269    1.1494   23.3968 H   0  0  0  0  0  0  0  0  0  0  0  0
   10.1861    1.2220   21.7096 H   0  0  0  0  0  0  0  0  0  0  0  0
    8.9975    1.1475   23.0090 H   0  0  0  0  0  0  0  0  0  0  0  0
    8.6795   -5.6174   26.8714 H   0  0  0  0  0  0  0  0  0  0  0  0
    7.7407   -6.4927   25.6781 H   0  0  0  0  0  0  0  0  0  0  0  0
    7.7506   -2.8178   21.4257 H   0  0  0  0  0  0  0  0  0  0  0  0
    9.5070   -2.6497   21.4641 H   0  0  0  0  0  0  0  0  0  0  0  0
    6.3218   -5.8507   27.6075 H   0  0  0  0  0  0  0  0  0  0  0  0
    6.7102   -4.1355   27.3801 H   0  0  0  0  0  0  0  0  0  0  0  0
    9.2371   -1.0619   21.8949 H   0  0  0  0  0  0  0  0  0  0  0  0
    4.8953   -5.7947   25.7987 H   0  0  0  0  0  0  0  0  0  0  0  0
   11.2414   -1.6376   21.1217 H   0  0  0  0  0  0  0  0  0  0  0  0
  1  5  1  0  0  0  0
  1 20  3  0  0  0  0
  2  5  2  0  0  0  0
  2  6  1  0  0  0  0
  2 26  1  0  0  0  0
  3  5  1  0  0  0  0
  3  7  2  0  0  0  0
  3 27  1  0  0  0  0
  4  8  2  0  0  0  0
  4 21  1  0  0  0  0
  4 28  1  0  0  0  0
  6  8  1  0  0  0  0
  6  9  2  0  0  0  0
  7  9  1  0  0  0  0
  7 19  1  0  0  0  0
  8 16  1  0  0  0  0
  9 21  1  0  0  0  0
 10 12  1  0  0  0  0
 10 22  1  0  0  0  0
 10 24  2  0  0  0  0
 11 13  1  0  0  0  0
 11 23  1  0  0  0  0
 11 25  2  0  0  0  0
 12 29  1  0  0  0  0
 12 30  1  0  0  0  0
 12 31  1  0  0  0  0
 13 32  1  0  0  0  0
 13 33  1  0  0  0  0
 13 34  1  0  0  0  0
 14 17  1  0  0  0  0
 14 35  1  0  0  0  0
 14 36  1  0  0  0  0
 14 37  1  0  0  0  0
 15 19  1  0  0  0  0
 15 38  1  0  0  0  0
 15 39  1  0  0  0  0
 15 40  1  0  0  0  0
 16 18  1  0  0  0  0
 16 41  1  0  0  0  0
 16 42  1  0  0  0  0
 17 21  1  0  0  0  0
 17 43  1  0  0  0  0
 17 44  1  0  0  0  0
 18 22  1  0  0  0  0
 18 45  1  0  0  0  0
 18 46  1  0  0  0  0
 19 23  1  0  0  0  0
 19 47  1  6  0  0  0
 22 48  1  0  0  0  0
 23 49  1  0  0  0  0
M  END
>  <Chemgauss4 Score>
-4.93208789825439

>  <Number of Confs>
178

$$$$
