JOH-MSK-a63-3
 OpenBabel03242009303D

 54 56  0  0  1  0  0  0  0  0999 V2000
    6.0766   -4.6212   26.3770 C   0  0  0  0  0  0  0  0  0  0  0  0
    6.6637   -4.2926   25.1496 C   0  0  0  0  0  0  0  0  0  0  0  0
    6.5962   -5.7302   28.6801 C   0  0  0  0  0  0  0  0  0  0  0  0
    8.7913   -5.2303   25.8557 C   0  0  0  0  0  0  0  0  0  0  0  0
    7.7594   -6.2836   29.1636 C   0  0  0  0  0  0  0  0  0  0  0  0
    6.8543   -5.2637   27.3607 C   0  0  0  0  0  0  0  0  0  0  0  0
    8.1910   -5.5528   27.0779 C   0  0  0  0  0  0  0  0  0  0  0  0
    8.0003   -4.5934   24.8951 C   0  0  0  0  0  0  0  0  0  0  0  0
   11.2425   -1.1878   24.8217 C   0  0  0  0  0  0  0  0  0  0  0  0
    6.4261    0.3306   18.7275 C   0  0  0  0  0  0  0  0  0  0  0  0
    8.4803   -2.1357   22.4921 C   0  0  2  0  0  0  0  0  0  0  0  0
    9.1583   -0.1035   23.8057 C   0  0  2  0  0  0  0  0  0  0  0  0
    9.1492   -2.9715   23.5912 C   0  0  1  0  0  0  0  0  0  0  0  0
    9.7438   -1.0381   24.8808 C   0  0  1  0  0  0  0  0  0  0  0  0
    9.1358   -0.7445   22.4007 C   0  0  2  0  0  0  0  0  0  0  0  0
    5.9685    1.3079   17.6961 C   0  0  0  0  0  0  0  0  0  0  0  0
    9.5630   -1.3655   27.1994 C   0  0  0  0  0  0  0  0  0  0  0  0
    8.4216    0.1511   21.3812 C   0  0  0  0  0  0  0  0  0  0  0  0
    8.4264   -0.4460   19.9837 C   0  0  0  0  0  0  0  0  0  0  0  0
    8.7157   -6.1716   28.1902 N   0  0  0  0  0  0  0  0  0  0  0  0
    7.7795    0.4013   19.0206 N   0  0  0  0  0  0  0  0  0  0  0  0
   11.8362   -2.2417   24.6486 O   0  0  0  0  0  0  0  0  0  0  0  0
    5.6168   -0.4390   19.2318 O   0  0  0  0  0  0  0  0  0  0  0  0
    9.1041   -2.3075   24.8553 O   0  0  0  0  0  0  0  0  0  0  0  0
   11.8504    0.0119   24.9903 O   0  0  0  0  0  0  0  0  0  0  0  0
    7.0929   -1.9811   22.7926 O   0  0  0  0  0  0  0  0  0  0  0  0
    9.8659    1.1352   23.8016 O   0  0  0  0  0  0  0  0  0  0  0  0
   10.4841   -0.9081   21.9472 O   0  0  0  0  0  0  0  0  0  0  0  0
    8.5488   -4.2609   23.6867 O   0  0  0  0  0  0  0  0  0  0  0  0
    9.5141   -0.4160   26.1487 O   0  0  0  0  0  0  0  0  0  0  0  0
    5.0336   -4.3809   26.5621 H   0  0  0  0  0  0  0  0  0  0  0  0
    6.0629   -3.7968   24.3909 H   0  0  0  0  0  0  0  0  0  0  0  0
    5.6605   -5.6686   29.2187 H   0  0  0  0  0  0  0  0  0  0  0  0
    9.8326   -5.4664   25.6616 H   0  0  0  0  0  0  0  0  0  0  0  0
    7.9913   -6.7462   30.1125 H   0  0  0  0  0  0  0  0  0  0  0  0
    8.5564   -2.6699   21.5372 H   0  0  0  0  0  0  0  0  0  0  0  0
    8.1252    0.1323   24.0975 H   0  0  0  0  0  0  0  0  0  0  0  0
   10.2170   -3.1415   23.3300 H   0  0  0  0  0  0  0  0  0  0  0  0
    6.0336    0.9018   16.6739 H   0  0  0  0  0  0  0  0  0  0  0  0
    4.9131    1.5956   17.8284 H   0  0  0  0  0  0  0  0  0  0  0  0
    6.5260    2.2577   17.6666 H   0  0  0  0  0  0  0  0  0  0  0  0
    9.3847   -0.8637   28.1536 H   0  0  0  0  0  0  0  0  0  0  0  0
   10.5424   -1.8506   27.2081 H   0  0  0  0  0  0  0  0  0  0  0  0
    8.7876   -2.1175   27.0353 H   0  0  0  0  0  0  0  0  0  0  0  0
    8.9309    1.1177   21.3633 H   0  0  0  0  0  0  0  0  0  0  0  0
    7.3975    0.3212   21.7229 H   0  0  0  0  0  0  0  0  0  0  0  0
    9.4585   -0.5838   19.6464 H   0  0  0  0  0  0  0  0  0  0  0  0
    7.9279   -1.4202   19.9617 H   0  0  0  0  0  0  0  0  0  0  0  0
    9.6690   -6.4962   28.2750 H   0  0  0  0  0  0  0  0  0  0  0  0
    8.3453    1.0908   18.5266 H   0  0  0  0  0  0  0  0  0  0  0  0
   12.8279   -0.0648   24.9569 H   0  0  0  0  0  0  0  0  0  0  0  0
    7.0478   -1.5299   23.6487 H   0  0  0  0  0  0  0  0  0  0  0  0
    9.4599    1.6823   23.1116 H   0  0  0  0  0  0  0  0  0  0  0  0
   10.8626   -0.0186   21.9020 H   0  0  0  0  0  0  0  0  0  0  0  0
  1  2  2  0  0  0  0
  1  6  1  0  0  0  0
  1 31  1  0  0  0  0
  2  8  1  0  0  0  0
  2 32  1  0  0  0  0
  3  5  2  0  0  0  0
  3  6  1  0  0  0  0
  3 33  1  0  0  0  0
  4  7  1  0  0  0  0
  4  8  2  0  0  0  0
  4 34  1  0  0  0  0
  5 20  1  0  0  0  0
  5 35  1  0  0  0  0
  6  7  2  0  0  0  0
  7 20  1  0  0  0  0
  8 29  1  0  0  0  0
  9 22  2  0  0  0  0
  9 25  1  0  0  0  0
 10 16  1  0  0  0  0
 10 21  1  0  0  0  0
 10 23  2  0  0  0  0
 11 13  1  0  0  0  0
 11 15  1  0  0  0  0
 11 26  1  0  0  0  0
 11 36  1  6  0  0  0
 12 14  1  0  0  0  0
 12 15  1  0  0  0  0
 12 27  1  0  0  0  0
 12 37  1  1  0  0  0
 13 24  1  0  0  0  0
 13 29  1  0  0  0  0
 13 38  1  6  0  0  0
 14  9  1  6  0  0  0
 14 24  1  0  0  0  0
 14 30  1  0  0  0  0
 15 18  1  0  0  0  0
 15 28  1  6  0  0  0
 16 39  1  0  0  0  0
 16 40  1  0  0  0  0
 16 41  1  0  0  0  0
 17 30  1  0  0  0  0
 17 42  1  0  0  0  0
 17 43  1  0  0  0  0
 17 44  1  0  0  0  0
 18 19  1  0  0  0  0
 18 45  1  0  0  0  0
 18 46  1  0  0  0  0
 19 21  1  0  0  0  0
 19 47  1  0  0  0  0
 19 48  1  0  0  0  0
 20 49  1  0  0  0  0
 21 50  1  0  0  0  0
 25 51  1  0  0  0  0
 26 52  1  0  0  0  0
 27 53  1  0  0  0  0
 28 54  1  0  0  0  0
M  END
>  <Chemgauss4 Score>
-5.02974891662598

>  <Number of Confs>
200

$$$$
