HAR-NEW-972-2
 OpenBabel03242009303D

 43 45  0  0  1  0  0  0  0  0999 V2000
   11.0980   -1.9386   23.9169 C   0  0  0  0  0  0  0  0  0  0  0  0
    9.8175   -1.4228   23.9169 C   0  0  0  0  0  0  0  0  0  0  0  0
   10.1041   -3.4798   25.1122 C   0  0  0  0  0  0  0  0  0  0  0  0
    6.1181   -4.5974   26.2232 C   0  0  0  0  0  0  0  0  0  0  0  0
   12.2318   -1.2881   23.2054 C   0  0  0  0  0  0  0  0  0  0  0  0
    9.3989   -0.1474   23.2671 C   0  0  0  0  0  0  0  0  0  0  0  0
   11.9019    0.1724   22.8468 C   0  0  0  0  0  0  0  0  0  0  0  0
    9.1046   -3.8274   28.1912 C   0  0  0  0  0  0  0  0  0  0  0  0
   10.2300   -4.5094   27.4211 C   0  0  0  0  0  0  0  0  0  0  0  0
    7.7924   -4.5824   28.0319 C   0  0  0  0  0  0  0  0  0  0  0  0
    8.4888   -5.3886   25.7821 C   0  0  0  0  0  0  0  0  0  0  0  0
    9.8773   -4.7366   25.9422 C   0  0  1  0  0  0  0  0  0  0  0  0
   10.4777    0.3173   22.2578 C   0  0  2  0  0  0  0  0  0  0  0  0
    5.8144   -4.8213   24.7626 C   0  0  0  0  0  0  0  0  0  0  0  0
   10.2155    1.7580   21.8238 C   0  0  0  0  0  0  0  0  0  0  0  0
   11.2635   -3.1252   24.6000 N   0  0  0  0  0  0  0  0  0  0  0  0
    7.4432   -4.7919   26.6263 N   0  0  0  0  0  0  0  0  0  0  0  0
    8.9388    1.8485   21.1992 N   0  0  0  0  0  0  0  0  0  0  0  0
    5.2064   -4.2558   26.9813 O   0  0  0  0  0  0  0  0  0  0  0  0
    8.7747   -2.4325   24.8052 S   0  0  0  0  0  0  0  0  0  0  0  0
    4.0885   -4.5430   24.5586 Cl  0  0  0  0  0  0  0  0  0  0  0  0
   13.1373   -1.3210   23.8210 H   0  0  0  0  0  0  0  0  0  0  0  0
   12.4377   -1.8505   22.2868 H   0  0  0  0  0  0  0  0  0  0  0  0
    8.4405   -0.2698   22.7489 H   0  0  0  0  0  0  0  0  0  0  0  0
    9.2593    0.6142   24.0448 H   0  0  0  0  0  0  0  0  0  0  0  0
   11.9844    0.7941   23.7485 H   0  0  0  0  0  0  0  0  0  0  0  0
   12.6492    0.5436   22.1356 H   0  0  0  0  0  0  0  0  0  0  0  0
    9.3680   -3.7711   29.2540 H   0  0  0  0  0  0  0  0  0  0  0  0
    8.9854   -2.7985   27.8350 H   0  0  0  0  0  0  0  0  0  0  0  0
   11.1455   -3.8951   27.5000 H   0  0  0  0  0  0  0  0  0  0  0  0
   10.4756   -5.4710   27.9043 H   0  0  0  0  0  0  0  0  0  0  0  0
    7.8506   -5.5416   28.5668 H   0  0  0  0  0  0  0  0  0  0  0  0
    6.9663   -4.0162   28.4901 H   0  0  0  0  0  0  0  0  0  0  0  0
    8.1357   -5.2989   24.7315 H   0  0  0  0  0  0  0  0  0  0  0  0
    8.5730   -6.4800   25.9551 H   0  0  0  0  0  0  0  0  0  0  0  0
   10.6414   -5.4895   25.5472 H   0  0  0  0  0  0  0  0  0  0  0  0
   10.4160   -0.3216   21.3658 H   0  0  0  0  0  0  0  0  0  0  0  0
    6.0591   -5.8457   24.5058 H   0  0  0  0  0  0  0  0  0  0  0  0
    6.3789   -4.1082   24.1730 H   0  0  0  0  0  0  0  0  0  0  0  0
   10.2492    2.3760   22.7194 H   0  0  0  0  0  0  0  0  0  0  0  0
   11.0044    2.0335   21.1260 H   0  0  0  0  0  0  0  0  0  0  0  0
    9.0342    2.2045   20.2648 H   0  0  0  0  0  0  0  0  0  0  0  0
    8.5089    0.9418   21.1570 H   0  0  0  0  0  0  0  0  0  0  0  0
  1  2  2  0  0  0  0
  1  5  1  0  0  0  0
  1 16  1  0  0  0  0
  2  6  1  0  0  0  0
  2 20  1  0  0  0  0
  3 12  1  0  0  0  0
  3 16  2  0  0  0  0
  3 20  1  0  0  0  0
  4 14  1  0  0  0  0
  4 17  1  0  0  0  0
  4 19  2  0  0  0  0
  5  7  1  0  0  0  0
  5 22  1  0  0  0  0
  5 23  1  0  0  0  0
  6 13  1  0  0  0  0
  6 24  1  0  0  0  0
  6 25  1  0  0  0  0
  7 13  1  0  0  0  0
  7 26  1  0  0  0  0
  7 27  1  0  0  0  0
  8  9  1  0  0  0  0
  8 10  1  0  0  0  0
  8 28  1  0  0  0  0
  8 29  1  0  0  0  0
  9 12  1  0  0  0  0
  9 30  1  0  0  0  0
  9 31  1  0  0  0  0
 10 17  1  0  0  0  0
 10 32  1  0  0  0  0
 10 33  1  0  0  0  0
 11 12  1  0  0  0  0
 11 17  1  0  0  0  0
 11 34  1  0  0  0  0
 11 35  1  0  0  0  0
 12 36  1  6  0  0  0
 13 15  1  0  0  0  0
 13 37  1  6  0  0  0
 14 21  1  0  0  0  0
 14 38  1  0  0  0  0
 14 39  1  0  0  0  0
 15 18  1  0  0  0  0
 15 40  1  0  0  0  0
 15 41  1  0  0  0  0
 18 42  1  0  0  0  0
 18 43  1  0  0  0  0
M  END
>  <Chemgauss4 Score>
-4.78781270980835

>  <Number of Confs>
200

$$$$
