SAL-INS-1ea-2
 OpenBabel03242009303D

 42 44  0  0  1  0  0  0  0  0999 V2000
    7.8114   -4.8416   23.4662 C   0  0  0  0  0  0  0  0  0  0  0  0
    6.8188   -2.8124   24.3231 C   0  0  0  0  0  0  0  0  0  0  0  0
    6.5927   -5.5025   23.6194 C   0  0  0  0  0  0  0  0  0  0  0  0
    5.6001   -3.4733   24.4763 C   0  0  0  0  0  0  0  0  0  0  0  0
    9.0797    1.1151   23.2050 C   0  0  0  0  0  0  0  0  0  0  0  0
    7.9578    0.9513   22.3420 C   0  0  0  0  0  0  0  0  0  0  0  0
    7.9245   -3.4966   23.8181 C   0  0  0  0  0  0  0  0  0  0  0  0
    5.4870   -4.8184   24.1244 C   0  0  0  0  0  0  0  0  0  0  0  0
   10.1410    0.3208   22.8305 C   0  0  0  0  0  0  0  0  0  0  0  0
    8.2046    0.0381   21.3405 C   0  0  0  0  0  0  0  0  0  0  0  0
    9.2974   -4.3629   26.5390 C   0  0  0  0  0  0  0  0  0  0  0  0
   10.3475   -2.1409   26.5620 C   0  0  0  0  0  0  0  0  0  0  0  0
   10.4871   -0.9260   25.6606 C   0  0  0  0  0  0  0  0  0  0  0  0
   11.4798   -2.5813   24.0325 C   0  0  0  0  0  0  0  0  0  0  0  0
   10.2277   -3.3741   24.3974 C   0  0  1  0  0  0  0  0  0  0  0  0
    9.1000   -4.1467   28.0193 C   0  0  0  0  0  0  0  0  0  0  0  0
    9.9213   -3.3327   25.8307 N   0  0  0  0  0  0  0  0  0  0  0  0
   11.4660   -1.1936   24.5791 N   0  0  0  0  0  0  0  0  0  0  0  0
    8.8991   -5.4100   26.0216 O   0  0  0  0  0  0  0  0  0  0  0  0
   12.6067   -0.3971   22.4084 O   0  0  0  0  0  0  0  0  0  0  0  0
   12.1202    1.2740   24.2301 O   0  0  0  0  0  0  0  0  0  0  0  0
    9.1199   -2.8484   23.6679 O   0  0  0  0  0  0  0  0  0  0  0  0
    4.3166   -5.4530   24.2715 F   0  0  0  0  0  0  0  0  0  0  0  0
    9.7832   -0.6174   21.4434 S   0  0  0  0  0  0  0  0  0  0  0  0
   11.7639    0.0816   23.4865 S   0  0  0  0  0  0  0  0  0  0  0  0
    7.1451   -0.4618   20.0898 Cl  0  0  0  0  0  0  0  0  0  0  0  0
    8.2697   -5.5732   28.6295 Cl  0  0  0  0  0  0  0  0  0  0  0  0
    8.6691   -5.3800   23.0722 H   0  0  0  0  0  0  0  0  0  0  0  0
    6.9006   -1.7646   24.5990 H   0  0  0  0  0  0  0  0  0  0  0  0
    6.5042   -6.5497   23.3456 H   0  0  0  0  0  0  0  0  0  0  0  0
    4.7390   -2.9410   24.8695 H   0  0  0  0  0  0  0  0  0  0  0  0
    9.1041    1.7818   24.0573 H   0  0  0  0  0  0  0  0  0  0  0  0
    7.0196    1.4792   22.4569 H   0  0  0  0  0  0  0  0  0  0  0  0
   11.2969   -2.3238   27.0788 H   0  0  0  0  0  0  0  0  0  0  0  0
    9.5923   -1.9598   27.3378 H   0  0  0  0  0  0  0  0  0  0  0  0
    9.5181   -0.6553   25.2245 H   0  0  0  0  0  0  0  0  0  0  0  0
   10.8236   -0.0531   26.2345 H   0  0  0  0  0  0  0  0  0  0  0  0
   12.3716   -3.0825   24.4358 H   0  0  0  0  0  0  0  0  0  0  0  0
   11.6124   -2.5342   22.9425 H   0  0  0  0  0  0  0  0  0  0  0  0
   10.3685   -4.4009   24.0582 H   0  0  0  0  0  0  0  0  0  0  0  0
    8.4853   -3.2663   28.1660 H   0  0  0  0  0  0  0  0  0  0  0  0
   10.0705   -4.0494   28.4916 H   0  0  0  0  0  0  0  0  0  0  0  0
  1  3  2  0  0  0  0
  1  7  1  0  0  0  0
  1 28  1  0  0  0  0
  2  4  1  0  0  0  0
  2  7  2  0  0  0  0
  2 29  1  0  0  0  0
  3  8  1  0  0  0  0
  3 30  1  0  0  0  0
  4  8  2  0  0  0  0
  4 31  1  0  0  0  0
  5  6  1  0  0  0  0
  5  9  2  0  0  0  0
  5 32  1  0  0  0  0
  6 10  2  0  0  0  0
  6 33  1  0  0  0  0
  7 22  1  0  0  0  0
  8 23  1  0  0  0  0
  9 24  1  0  0  0  0
  9 25  1  0  0  0  0
 10 24  1  0  0  0  0
 10 26  1  0  0  0  0
 11 16  1  0  0  0  0
 11 17  1  0  0  0  0
 11 19  2  0  0  0  0
 12 13  1  0  0  0  0
 12 17  1  0  0  0  0
 12 34  1  0  0  0  0
 12 35  1  0  0  0  0
 13 18  1  0  0  0  0
 13 36  1  0  0  0  0
 13 37  1  0  0  0  0
 14 15  1  0  0  0  0
 14 18  1  0  0  0  0
 14 38  1  0  0  0  0
 14 39  1  0  0  0  0
 15 17  1  0  0  0  0
 15 22  1  0  0  0  0
 15 40  1  6  0  0  0
 16 27  1  0  0  0  0
 16 41  1  0  0  0  0
 16 42  1  0  0  0  0
 18 25  1  0  0  0  0
 20 25  2  0  0  0  0
 21 25  2  0  0  0  0
M  END
>  <Chemgauss4 Score>
-4.97529935836792

>  <Number of Confs>
200

$$$$
