DAR-DIA-842-18
 OpenBabel03242009303D

 32 34  0  0  0  0  0  0  0  0999 V2000
   12.0734   -1.2799   22.6984 C   0  0  0  0  0  0  0  0  0  0  0  0
   11.8558   -2.5831   23.1417 C   0  0  0  0  0  0  0  0  0  0  0  0
    4.2542   -5.4876   25.1597 C   0  0  0  0  0  0  0  0  0  0  0  0
    5.2859   -5.1348   26.0769 C   0  0  0  0  0  0  0  0  0  0  0  0
   10.8044   -3.8651   25.1658 C   0  0  0  0  0  0  0  0  0  0  0  0
   11.6427   -0.2243   23.4909 C   0  0  0  0  0  0  0  0  0  0  0  0
   11.2076   -2.7566   24.3752 C   0  0  0  0  0  0  0  0  0  0  0  0
   10.2000   -3.3691   26.3009 C   0  0  0  0  0  0  0  0  0  0  0  0
    4.7261   -5.6076   23.8711 C   0  0  0  0  0  0  0  0  0  0  0  0
   10.8290   -1.6094   25.0666 C   0  0  0  0  0  0  0  0  0  0  0  0
    6.5073   -4.9988   25.4543 C   0  0  0  0  0  0  0  0  0  0  0  0
    8.1078   -4.3834   27.2995 C   0  0  0  0  0  0  0  0  0  0  0  0
    3.9762   -5.9548   22.6445 C   0  0  0  0  0  0  0  0  0  0  0  0
    9.6001   -4.0669   27.4538 C   0  0  0  0  0  0  0  0  0  0  0  0
   11.0145   -0.3316   24.6847 N   0  0  0  0  0  0  0  0  0  0  0  0
   10.2202   -2.0003   26.2300 N   0  0  0  0  0  0  0  0  0  0  0  0
    7.7799   -4.6649   25.9756 N   0  0  0  0  0  0  0  0  0  0  0  0
    7.3517   -4.3707   28.2655 O   0  0  0  0  0  0  0  0  0  0  0  0
    6.4069   -5.2957   23.7709 S   0  0  0  0  0  0  0  0  0  0  0  0
   12.5697   -1.0957   21.7517 H   0  0  0  0  0  0  0  0  0  0  0  0
   12.1784   -3.4315   22.5466 H   0  0  0  0  0  0  0  0  0  0  0  0
    3.2189   -5.6441   25.4354 H   0  0  0  0  0  0  0  0  0  0  0  0
    5.1349   -4.9894   27.1391 H   0  0  0  0  0  0  0  0  0  0  0  0
   10.9399   -4.9124   24.9313 H   0  0  0  0  0  0  0  0  0  0  0  0
   11.8040    0.7985   23.1604 H   0  0  0  0  0  0  0  0  0  0  0  0
    3.5828   -5.0509   22.1538 H   0  0  0  0  0  0  0  0  0  0  0  0
    4.6070   -6.4880   21.9145 H   0  0  0  0  0  0  0  0  0  0  0  0
    3.1243   -6.6209   22.8586 H   0  0  0  0  0  0  0  0  0  0  0  0
   10.1196   -5.0249   27.6554 H   0  0  0  0  0  0  0  0  0  0  0  0
    9.7171   -3.4741   28.3828 H   0  0  0  0  0  0  0  0  0  0  0  0
    9.8448   -1.3720   26.9272 H   0  0  0  0  0  0  0  0  0  0  0  0
    8.5446   -4.6259   25.3049 H   0  0  0  0  0  0  0  0  0  0  0  0
  1  2  2  0  0  0  0
  1  6  1  0  0  0  0
  1 20  1  0  0  0  0
  2  7  1  0  0  0  0
  2 21  1  0  0  0  0
  3  4  1  0  0  0  0
  3  9  2  0  0  0  0
  3 22  1  0  0  0  0
  4 11  2  0  0  0  0
  4 23  1  0  0  0  0
  5  7  1  0  0  0  0
  5  8  2  0  0  0  0
  5 24  1  0  0  0  0
  6 15  2  0  0  0  0
  6 25  1  0  0  0  0
  7 10  2  0  0  0  0
  8 14  1  0  0  0  0
  8 16  1  0  0  0  0
  9 13  1  0  0  0  0
  9 19  1  0  0  0  0
 10 15  1  0  0  0  0
 10 16  1  0  0  0  0
 11 17  1  0  0  0  0
 11 19  1  0  0  0  0
 12 14  1  0  0  0  0
 12 17  1  0  0  0  0
 12 18  2  0  0  0  0
 13 26  1  0  0  0  0
 13 27  1  0  0  0  0
 13 28  1  0  0  0  0
 14 29  1  0  0  0  0
 14 30  1  0  0  0  0
 16 31  1  0  0  0  0
 17 32  1  0  0  0  0
M  END
>  <Chemgauss4 Score>
-5.90234756469727

>  <Number of Confs>
59

$$$$
