SAL-INS-1c7-9
 OpenBabel03242009303D

 43 45  0  0  1  0  0  0  0  0999 V2000
    7.6099   -3.8045   22.4992 C   0  0  0  0  0  0  0  0  0  0  0  0
    8.0603   -2.7040   23.2282 C   0  0  0  0  0  0  0  0  0  0  0  0
    8.6323   -5.2888   24.1081 C   0  0  0  0  0  0  0  0  0  0  0  0
    8.8053   -3.5746   28.2980 C   0  0  0  0  0  0  0  0  0  0  0  0
    7.7277   -5.4419   28.7545 C   0  0  0  0  0  0  0  0  0  0  0  0
    7.8958   -5.0970   22.9392 C   0  0  0  0  0  0  0  0  0  0  0  0
    9.0829   -4.1883   24.8371 C   0  0  0  0  0  0  0  0  0  0  0  0
    8.7968   -2.8958   24.3971 C   0  0  0  0  0  0  0  0  0  0  0  0
    9.0244   -4.5302   27.3340 C   0  0  0  0  0  0  0  0  0  0  0  0
   11.3787   -1.8900   23.8626 C   0  0  0  0  0  0  0  0  0  0  0  0
   12.1006   -1.1211   23.0399 C   0  0  0  0  0  0  0  0  0  0  0  0
    8.3734   -1.2386   26.1485 C   0  0  0  0  0  0  0  0  0  0  0  0
   10.5071    0.2797   24.5208 C   0  0  0  0  0  0  0  0  0  0  0  0
   10.5898   -1.1917   24.9385 C   0  0  1  0  0  0  0  0  0  0  0  0
    7.4161   -6.2737   22.1582 C   0  0  0  0  0  0  0  0  0  0  0  0
    9.8723   -4.4235   26.0840 C   0  0  0  0  0  0  0  0  0  0  0  0
    7.0111   -1.9090   26.1714 C   0  0  0  0  0  0  0  0  0  0  0  0
    8.3505   -5.6902   27.6239 N   0  0  0  0  0  0  0  0  0  0  0  0
    7.9725   -4.1730   29.2010 N   0  0  0  0  0  0  0  0  0  0  0  0
    9.2552   -1.7407   25.1391 N   0  0  0  0  0  0  0  0  0  0  0  0
    8.6256   -0.3220   26.9347 O   0  0  0  0  0  0  0  0  0  0  0  0
   13.0401    0.9763   24.2634 O   0  0  0  0  0  0  0  0  0  0  0  0
   11.4860    1.3025   22.2903 O   0  0  0  0  0  0  0  0  0  0  0  0
   11.9198    0.5494   23.4492 S   0  0  0  0  0  0  0  0  0  0  0  0
    5.8929   -1.0552   25.0869 Cl  0  0  0  0  0  0  0  0  0  0  0  0
    7.0367   -3.6455   21.5897 H   0  0  0  0  0  0  0  0  0  0  0  0
    7.8303   -1.7014   22.8761 H   0  0  0  0  0  0  0  0  0  0  0  0
    8.8561   -6.2971   24.4487 H   0  0  0  0  0  0  0  0  0  0  0  0
    9.1515   -2.5586   28.4223 H   0  0  0  0  0  0  0  0  0  0  0  0
    7.0921   -6.1286   29.2956 H   0  0  0  0  0  0  0  0  0  0  0  0
   11.3620   -2.9647   23.7706 H   0  0  0  0  0  0  0  0  0  0  0  0
   12.7044   -1.4705   22.2169 H   0  0  0  0  0  0  0  0  0  0  0  0
    9.5910    0.5470   23.9964 H   0  0  0  0  0  0  0  0  0  0  0  0
   10.6345    0.9280   25.3899 H   0  0  0  0  0  0  0  0  0  0  0  0
   11.1049   -1.2534   25.9246 H   0  0  0  0  0  0  0  0  0  0  0  0
    8.1646   -6.5679   21.4125 H   0  0  0  0  0  0  0  0  0  0  0  0
    7.2202   -7.1330   22.8125 H   0  0  0  0  0  0  0  0  0  0  0  0
    6.4757   -6.0498   21.6379 H   0  0  0  0  0  0  0  0  0  0  0  0
   10.4828   -5.3371   25.9850 H   0  0  0  0  0  0  0  0  0  0  0  0
   10.6179   -3.6224   26.2234 H   0  0  0  0  0  0  0  0  0  0  0  0
    7.0994   -2.9420   25.8256 H   0  0  0  0  0  0  0  0  0  0  0  0
    6.5694   -1.8711   27.1699 H   0  0  0  0  0  0  0  0  0  0  0  0
    7.6052   -3.7547   30.0452 H   0  0  0  0  0  0  0  0  0  0  0  0
  1  2  2  0  0  0  0
  1  6  1  0  0  0  0
  1 26  1  0  0  0  0
  2  8  1  0  0  0  0
  2 27  1  0  0  0  0
  3  6  2  0  0  0  0
  3  7  1  0  0  0  0
  3 28  1  0  0  0  0
  4  9  2  0  0  0  0
  4 19  1  0  0  0  0
  4 29  1  0  0  0  0
  5 18  2  0  0  0  0
  5 19  1  0  0  0  0
  5 30  1  0  0  0  0
  6 15  1  0  0  0  0
  7  8  2  0  0  0  0
  7 16  1  0  0  0  0
  8 20  1  0  0  0  0
  9 16  1  0  0  0  0
  9 18  1  0  0  0  0
 10 11  2  0  0  0  0
 10 14  1  0  0  0  0
 10 31  1  0  0  0  0
 11 24  1  0  0  0  0
 11 32  1  0  0  0  0
 12 17  1  0  0  0  0
 12 20  1  0  0  0  0
 12 21  2  0  0  0  0
 13 14  1  0  0  0  0
 13 24  1  0  0  0  0
 13 33  1  0  0  0  0
 13 34  1  0  0  0  0
 14 20  1  0  0  0  0
 14 35  1  1  0  0  0
 15 36  1  0  0  0  0
 15 37  1  0  0  0  0
 15 38  1  0  0  0  0
 16 39  1  0  0  0  0
 16 40  1  0  0  0  0
 17 25  1  0  0  0  0
 17 41  1  0  0  0  0
 17 42  1  0  0  0  0
 19 43  1  0  0  0  0
 22 24  2  0  0  0  0
 23 24  2  0  0  0  0
M  END
>  <Chemgauss4 Score>
-7.1807746887207

>  <Number of Confs>
200

$$$$
