SAM-UNK-903-2
 OpenBabel03242009303D

 43 44  0  0  0  0  0  0  0  0999 V2000
    6.1189   -3.3297   25.4889 C   0  0  0  0  0  0  0  0  0  0  0  0
    6.6701   -2.0056   23.5294 C   0  0  0  0  0  0  0  0  0  0  0  0
    8.9997   -5.5683   25.2655 C   0  0  0  0  0  0  0  0  0  0  0  0
    7.2717   -4.1111   25.2747 C   0  0  0  0  0  0  0  0  0  0  0  0
    7.8191   -2.7670   23.2969 C   0  0  0  0  0  0  0  0  0  0  0  0
    7.8560   -5.2210   25.9468 C   0  0  0  0  0  0  0  0  0  0  0  0
    8.0935   -3.8124   24.1859 C   0  0  0  0  0  0  0  0  0  0  0  0
    5.8318   -2.2808   24.6079 C   0  0  0  0  0  0  0  0  0  0  0  0
    8.9666   -3.2039   28.2759 C   0  0  0  0  0  0  0  0  0  0  0  0
    8.7046   -1.7963   28.6982 C   0  0  0  0  0  0  0  0  0  0  0  0
   12.8918   -0.3993   22.8062 C   0  0  0  0  0  0  0  0  0  0  0  0
    8.6943   -2.4444   22.1322 C   0  0  0  0  0  0  0  0  0  0  0  0
    7.3370   -5.8876   27.1583 C   0  0  0  0  0  0  0  0  0  0  0  0
    9.5747   -1.2083   22.3516 C   0  0  0  0  0  0  0  0  0  0  0  0
    8.0975   -5.5272   28.4474 C   0  0  0  0  0  0  0  0  0  0  0  0
    9.1347   -4.7128   24.2051 N   0  0  0  0  0  0  0  0  0  0  0  0
    8.0353   -4.1199   28.7381 N   0  0  0  0  0  0  0  0  0  0  0  0
   10.4734   -1.3674   23.4633 N   0  0  0  0  0  0  0  0  0  0  0  0
    9.9423   -3.4536   27.5777 O   0  0  0  0  0  0  0  0  0  0  0  0
   12.0036   -0.3084   25.2665 O   0  0  0  0  0  0  0  0  0  0  0  0
   10.9505    1.1858   23.5302 O   0  0  0  0  0  0  0  0  0  0  0  0
    4.7374   -1.5329   24.8050 F   0  0  0  0  0  0  0  0  0  0  0  0
   11.5357   -0.0850   23.9126 S   0  0  0  0  0  0  0  0  0  0  0  0
    5.4554   -3.5312   26.3250 H   0  0  0  0  0  0  0  0  0  0  0  0
    6.4189   -1.1834   22.8629 H   0  0  0  0  0  0  0  0  0  0  0  0
    9.7307   -6.3459   25.4389 H   0  0  0  0  0  0  0  0  0  0  0  0
    9.1911   -1.5468   29.6548 H   0  0  0  0  0  0  0  0  0  0  0  0
    9.0916   -1.0612   27.9743 H   0  0  0  0  0  0  0  0  0  0  0  0
    7.6431   -1.5355   28.8362 H   0  0  0  0  0  0  0  0  0  0  0  0
   13.6609    0.3546   22.9812 H   0  0  0  0  0  0  0  0  0  0  0  0
   13.2807   -1.3975   23.0131 H   0  0  0  0  0  0  0  0  0  0  0  0
   12.5218   -0.3375   21.7818 H   0  0  0  0  0  0  0  0  0  0  0  0
    8.0675   -2.2746   21.2409 H   0  0  0  0  0  0  0  0  0  0  0  0
    9.3330   -3.3070   21.8764 H   0  0  0  0  0  0  0  0  0  0  0  0
    7.3807   -6.9878   27.0350 H   0  0  0  0  0  0  0  0  0  0  0  0
    6.2607   -5.6681   27.3094 H   0  0  0  0  0  0  0  0  0  0  0  0
   10.1942   -1.0177   21.4696 H   0  0  0  0  0  0  0  0  0  0  0  0
    8.9683   -0.3167   22.5421 H   0  0  0  0  0  0  0  0  0  0  0  0
    7.6728   -6.0471   29.3120 H   0  0  0  0  0  0  0  0  0  0  0  0
    9.1545   -5.8019   28.3692 H   0  0  0  0  0  0  0  0  0  0  0  0
    9.8902   -4.7384   23.5343 H   0  0  0  0  0  0  0  0  0  0  0  0
    7.2668   -3.7789   29.3136 H   0  0  0  0  0  0  0  0  0  0  0  0
   10.8690   -2.3241   23.5925 H   0  0  0  0  0  0  0  0  0  0  0  0
  1  4  1  0  0  0  0
  1  8  2  0  0  0  0
  1 24  1  0  0  0  0
  2  5  2  0  0  0  0
  2  8  1  0  0  0  0
  2 25  1  0  0  0  0
  3  6  2  0  0  0  0
  3 16  1  0  0  0  0
  3 26  1  0  0  0  0
  4  6  1  0  0  0  0
  4  7  2  0  0  0  0
  5  7  1  0  0  0  0
  5 12  1  0  0  0  0
  6 13  1  0  0  0  0
  7 16  1  0  0  0  0
  8 22  1  0  0  0  0
  9 10  1  0  0  0  0
  9 17  1  0  0  0  0
  9 19  2  0  0  0  0
 10 27  1  0  0  0  0
 10 28  1  0  0  0  0
 10 29  1  0  0  0  0
 11 23  1  0  0  0  0
 11 30  1  0  0  0  0
 11 31  1  0  0  0  0
 11 32  1  0  0  0  0
 12 14  1  0  0  0  0
 12 33  1  0  0  0  0
 12 34  1  0  0  0  0
 13 15  1  0  0  0  0
 13 35  1  0  0  0  0
 13 36  1  0  0  0  0
 14 18  1  0  0  0  0
 14 37  1  0  0  0  0
 14 38  1  0  0  0  0
 15 17  1  0  0  0  0
 15 39  1  0  0  0  0
 15 40  1  0  0  0  0
 16 41  1  0  0  0  0
 17 42  1  0  0  0  0
 18 23  1  0  0  0  0
 18 43  1  0  0  0  0
 20 23  2  0  0  0  0
 21 23  2  0  0  0  0
M  END
>  <Chemgauss4 Score>
-4.63860845565796

>  <Number of Confs>
200

$$$$
