DUN-NEW-f8c-22
 OpenBabel03242009303D

 37 38  0  0  1  0  0  0  0  0999 V2000
   13.1375   -0.4678   22.7059 C   0  0  0  0  0  0  0  0  0  0  0  0
   12.7305    0.0127   23.9505 C   0  0  0  0  0  0  0  0  0  0  0  0
   12.4216   -1.4915   22.0854 C   0  0  0  0  0  0  0  0  0  0  0  0
   11.6077   -0.5306   24.5747 C   0  0  0  0  0  0  0  0  0  0  0  0
   11.2987   -2.0349   22.7096 C   0  0  0  0  0  0  0  0  0  0  0  0
   10.8917   -1.5544   23.9542 C   0  0  0  0  0  0  0  0  0  0  0  0
    8.3320   -5.3279   25.7823 C   0  0  0  0  0  0  0  0  0  0  0  0
    7.0113   -3.3028   25.0011 C   0  0  0  0  0  0  0  0  0  0  0  0
    7.2978   -1.8305   25.2740 C   0  0  0  0  0  0  0  0  0  0  0  0
    9.3757   -3.6250   24.3211 C   0  0  0  0  0  0  0  0  0  0  0  0
    9.6687   -2.1468   24.6337 C   0  0  2  0  0  0  0  0  0  0  0  0
    6.8163    0.3764   23.1626 C   0  0  0  0  0  0  0  0  0  0  0  0
    7.4286   -5.5106   26.9759 C   0  0  0  0  0  0  0  0  0  0  0  0
    8.2326   -4.1129   25.1027 N   0  0  0  0  0  0  0  0  0  0  0  0
    8.4120   -1.3445   24.4077 N   0  0  0  0  0  0  0  0  0  0  0  0
    9.1044   -6.2367   25.4669 O   0  0  0  0  0  0  0  0  0  0  0  0
    7.2698   -2.0097   22.1992 O   0  0  0  0  0  0  0  0  0  0  0  0
    9.1342   -0.3043   22.1669 O   0  0  0  0  0  0  0  0  0  0  0  0
    7.9860   -0.9090   22.8058 S   0  0  0  0  0  0  0  0  0  0  0  0
    7.8606   -4.2551   28.1313 Cl  0  0  0  0  0  0  0  0  0  0  0  0
   14.0111   -0.0437   22.2194 H   0  0  0  0  0  0  0  0  0  0  0  0
   13.2872    0.8106   24.4333 H   0  0  0  0  0  0  0  0  0  0  0  0
   12.7375   -1.8651   21.1159 H   0  0  0  0  0  0  0  0  0  0  0  0
   11.2980   -0.1501   25.5445 H   0  0  0  0  0  0  0  0  0  0  0  0
   10.7471   -2.8323   22.2187 H   0  0  0  0  0  0  0  0  0  0  0  0
    6.3117   -3.6970   25.7475 H   0  0  0  0  0  0  0  0  0  0  0  0
    6.5335   -3.4028   24.0257 H   0  0  0  0  0  0  0  0  0  0  0  0
    6.4013   -1.2241   25.0996 H   0  0  0  0  0  0  0  0  0  0  0  0
    7.5848   -1.7167   26.3257 H   0  0  0  0  0  0  0  0  0  0  0  0
    9.2187   -3.7786   23.2595 H   0  0  0  0  0  0  0  0  0  0  0  0
   10.2245   -4.2310   24.6315 H   0  0  0  0  0  0  0  0  0  0  0  0
    9.8658   -2.0822   25.7445 H   0  0  0  0  0  0  0  0  0  0  0  0
    6.4392    0.7709   22.2178 H   0  0  0  0  0  0  0  0  0  0  0  0
    6.0028   -0.0517   23.7502 H   0  0  0  0  0  0  0  0  0  0  0  0
    7.3258    1.1585   23.7274 H   0  0  0  0  0  0  0  0  0  0  0  0
    7.6078   -6.4895   27.4057 H   0  0  0  0  0  0  0  0  0  0  0  0
    6.3992   -5.3874   26.6595 H   0  0  0  0  0  0  0  0  0  0  0  0
  1  2  1  0  0  0  0
  1  3  2  0  0  0  0
  1 21  1  0  0  0  0
  2  4  2  0  0  0  0
  2 22  1  0  0  0  0
  3  5  1  0  0  0  0
  3 23  1  0  0  0  0
  4  6  1  0  0  0  0
  4 24  1  0  0  0  0
  5  6  2  0  0  0  0
  5 25  1  0  0  0  0
  6 11  1  0  0  0  0
  7 13  1  0  0  0  0
  7 14  1  0  0  0  0
  7 16  2  0  0  0  0
  8  9  1  0  0  0  0
  8 14  1  0  0  0  0
  8 26  1  0  0  0  0
  8 27  1  0  0  0  0
  9 15  1  0  0  0  0
  9 28  1  0  0  0  0
  9 29  1  0  0  0  0
 10 11  1  0  0  0  0
 10 14  1  0  0  0  0
 10 30  1  0  0  0  0
 10 31  1  0  0  0  0
 11 15  1  0  0  0  0
 11 32  1  1  0  0  0
 12 19  1  0  0  0  0
 12 33  1  0  0  0  0
 12 34  1  0  0  0  0
 12 35  1  0  0  0  0
 13 20  1  0  0  0  0
 13 36  1  0  0  0  0
 13 37  1  0  0  0  0
 15 19  1  0  0  0  0
 17 19  2  0  0  0  0
 18 19  2  0  0  0  0
M  END
>  <Chemgauss4 Score>
-4.9291820526123

>  <Number of Confs>
17

$$$$
