GIA-UNK-995-9
 OpenBabel03242009303D

 37 37  0  0  1  0  0  0  0  0999 V2000
   10.3947   -1.1029   23.6340 C   0  0  0  0  0  0  0  0  0  0  0  0
    8.5014   -5.2143   25.9945 C   0  0  0  0  0  0  0  0  0  0  0  0
   10.7254   -3.5659   23.7587 C   0  0  0  0  0  0  0  0  0  0  0  0
    8.3900   -2.5942   23.5044 C   0  0  0  0  0  0  0  0  0  0  0  0
   10.4072   -3.8354   25.2284 C   0  0  0  0  0  0  0  0  0  0  0  0
    8.1376   -2.9116   24.9790 C   0  0  0  0  0  0  0  0  0  0  0  0
    9.8768   -2.4337   23.1715 C   0  0  1  0  0  0  0  0  0  0  0  0
    5.8517   -5.7093   24.7230 C   0  0  0  0  0  0  0  0  0  0  0  0
    7.5278   -5.4984   28.2225 C   0  0  0  0  0  0  0  0  0  0  0  0
    6.1548   -6.0376   26.1793 C   0  0  0  0  0  0  0  0  0  0  0  0
   12.6097    0.5023   23.8297 C   0  0  0  0  0  0  0  0  0  0  0  0
    7.2184   -5.1188   26.7811 C   0  0  2  0  0  0  0  0  0  0  0  0
    8.9712   -4.0340   25.4200 N   0  0  0  0  0  0  0  0  0  0  0  0
    9.9684   -0.5291   24.6289 O   0  0  0  0  0  0  0  0  0  0  0  0
    9.0663   -6.3064   25.8932 O   0  0  0  0  0  0  0  0  0  0  0  0
   12.6611   -0.1861   25.0013 F   0  0  0  0  0  0  0  0  0  0  0  0
   11.6738   -0.4463   22.6133 S   0  0  0  0  0  0  0  0  0  0  0  0
   11.7930   -3.3361   23.6577 H   0  0  0  0  0  0  0  0  0  0  0  0
   10.5422   -4.4830   23.1840 H   0  0  0  0  0  0  0  0  0  0  0  0
    7.9776   -3.4094   22.8960 H   0  0  0  0  0  0  0  0  0  0  0  0
    7.8390   -1.6857   23.2329 H   0  0  0  0  0  0  0  0  0  0  0  0
   10.9714   -4.7085   25.5716 H   0  0  0  0  0  0  0  0  0  0  0  0
   10.7096   -2.9880   25.8545 H   0  0  0  0  0  0  0  0  0  0  0  0
    8.3913   -2.0523   25.6103 H   0  0  0  0  0  0  0  0  0  0  0  0
    7.0742   -3.1084   25.1267 H   0  0  0  0  0  0  0  0  0  0  0  0
    9.9973   -2.4349   22.0810 H   0  0  0  0  0  0  0  0  0  0  0  0
    5.5363   -4.6667   24.6138 H   0  0  0  0  0  0  0  0  0  0  0  0
    6.7257   -5.8739   24.0854 H   0  0  0  0  0  0  0  0  0  0  0  0
    5.0426   -6.3477   24.3541 H   0  0  0  0  0  0  0  0  0  0  0  0
    7.8593   -6.5401   28.2837 H   0  0  0  0  0  0  0  0  0  0  0  0
    8.3148   -4.8637   28.6455 H   0  0  0  0  0  0  0  0  0  0  0  0
    6.6412   -5.3880   28.8568 H   0  0  0  0  0  0  0  0  0  0  0  0
    6.4664   -7.0872   26.2487 H   0  0  0  0  0  0  0  0  0  0  0  0
    5.2262   -5.9401   26.7547 H   0  0  0  0  0  0  0  0  0  0  0  0
   12.1291    1.4643   24.0256 H   0  0  0  0  0  0  0  0  0  0  0  0
   13.6359    0.6646   23.4898 H   0  0  0  0  0  0  0  0  0  0  0  0
    6.8900   -4.0764   26.7449 H   0  0  0  0  0  0  0  0  0  0  0  0
  1  7  1  0  0  0  0
  1 14  2  0  0  0  0
  1 17  1  0  0  0  0
  2 12  1  0  0  0  0
  2 13  1  0  0  0  0
  2 15  2  0  0  0  0
  3  5  1  0  0  0  0
  3  7  1  0  0  0  0
  3 18  1  0  0  0  0
  3 19  1  0  0  0  0
  4  6  1  0  0  0  0
  4  7  1  0  0  0  0
  4 20  1  0  0  0  0
  4 21  1  0  0  0  0
  5 13  1  0  0  0  0
  5 22  1  0  0  0  0
  5 23  1  0  0  0  0
  6 13  1  0  0  0  0
  6 24  1  0  0  0  0
  6 25  1  0  0  0  0
  7 26  1  6  0  0  0
  8 10  1  0  0  0  0
  8 27  1  0  0  0  0
  8 28  1  0  0  0  0
  8 29  1  0  0  0  0
  9 12  1  0  0  0  0
  9 30  1  0  0  0  0
  9 31  1  0  0  0  0
  9 32  1  0  0  0  0
 10 12  1  0  0  0  0
 10 33  1  0  0  0  0
 10 34  1  0  0  0  0
 11 16  1  0  0  0  0
 11 17  1  0  0  0  0
 11 35  1  0  0  0  0
 11 36  1  0  0  0  0
 12 37  1  6  0  0  0
M  END
>  <Chemgauss4 Score>
-5.23766613006592

>  <Number of Confs>
200

$$$$
