AGN-NEW-c7b-5
 OpenBabel03242009303D

 30 31  0  0  0  0  0  0  0  0999 V2000
    8.6907    0.1162   26.3085 C   0  0  0  0  0  0  0  0  0  0  0  0
    9.5752   -0.1183   25.5311 C   0  0  0  0  0  0  0  0  0  0  0  0
    9.0971   -5.5001   26.8308 C   0  0  0  0  0  0  0  0  0  0  0  0
   12.7259   -0.7698   22.9017 C   0  0  0  0  0  0  0  0  0  0  0  0
    9.1922   -5.0922   25.5003 C   0  0  0  0  0  0  0  0  0  0  0  0
   11.6886   -1.6956   22.9190 C   0  0  0  0  0  0  0  0  0  0  0  0
    7.8473   -5.5993   27.4422 C   0  0  0  0  0  0  0  0  0  0  0  0
    6.7877   -4.8827   25.3926 C   0  0  0  0  0  0  0  0  0  0  0  0
   12.6435    0.3126   23.7627 C   0  0  0  0  0  0  0  0  0  0  0  0
   10.6280   -0.3977   24.6062 C   0  0  0  0  0  0  0  0  0  0  0  0
    8.0375   -4.7835   24.7812 C   0  0  0  0  0  0  0  0  0  0  0  0
   10.6158   -1.5133   23.7846 C   0  0  0  0  0  0  0  0  0  0  0  0
    6.6926   -5.2906   26.7231 C   0  0  0  0  0  0  0  0  0  0  0  0
    9.4340   -3.6059   23.0301 C   0  0  0  0  0  0  0  0  0  0  0  0
    8.1401   -4.3462   23.3590 C   0  0  0  0  0  0  0  0  0  0  0  0
   11.6176    0.5233   24.6176 N   0  0  0  0  0  0  0  0  0  0  0  0
    9.5588   -2.4542   23.8029 N   0  0  0  0  0  0  0  0  0  0  0  0
   10.2193   -4.0216   22.1841 O   0  0  0  0  0  0  0  0  0  0  0  0
    5.1510   -5.4121   27.4783 Cl  0  0  0  0  0  0  0  0  0  0  0  0
    7.9063    0.3239   26.9983 H   0  0  0  0  0  0  0  0  0  0  0  0
    9.9965   -5.7403   27.3904 H   0  0  0  0  0  0  0  0  0  0  0  0
   13.5724   -0.8919   22.2358 H   0  0  0  0  0  0  0  0  0  0  0  0
   10.1702   -5.0176   25.0320 H   0  0  0  0  0  0  0  0  0  0  0  0
   11.7275   -2.5545   22.2541 H   0  0  0  0  0  0  0  0  0  0  0  0
    7.7883   -5.9183   28.4799 H   0  0  0  0  0  0  0  0  0  0  0  0
    5.8903   -4.6413   24.8275 H   0  0  0  0  0  0  0  0  0  0  0  0
   13.4271    1.0626   23.7883 H   0  0  0  0  0  0  0  0  0  0  0  0
    8.0641   -5.2152   22.6846 H   0  0  0  0  0  0  0  0  0  0  0  0
    7.2943   -3.6883   23.0999 H   0  0  0  0  0  0  0  0  0  0  0  0
    8.8017   -2.2673   24.4571 H   0  0  0  0  0  0  0  0  0  0  0  0
  1  2  3  0  0  0  0
  1 20  1  0  0  0  0
  2 10  1  0  0  0  0
  3  5  2  0  0  0  0
  3  7  1  0  0  0  0
  3 21  1  0  0  0  0
  4  6  2  0  0  0  0
  4  9  1  0  0  0  0
  4 22  1  0  0  0  0
  5 11  1  0  0  0  0
  5 23  1  0  0  0  0
  6 12  1  0  0  0  0
  6 24  1  0  0  0  0
  7 13  2  0  0  0  0
  7 25  1  0  0  0  0
  8 11  2  0  0  0  0
  8 13  1  0  0  0  0
  8 26  1  0  0  0  0
  9 16  2  0  0  0  0
  9 27  1  0  0  0  0
 10 12  2  0  0  0  0
 10 16  1  0  0  0  0
 11 15  1  0  0  0  0
 12 17  1  0  0  0  0
 13 19  1  0  0  0  0
 14 15  1  0  0  0  0
 14 17  1  0  0  0  0
 14 18  2  0  0  0  0
 15 28  1  0  0  0  0
 15 29  1  0  0  0  0
 17 30  1  0  0  0  0
M  END
>  <Chemgauss4 Score>
-4.59582710266113

>  <Number of Confs>
20

$$$$
