CHR-SOS-363-7
 OpenBabel03242009303D

 41 43  0  0  0  0  0  0  0  0999 V2000
    9.7431   -2.8414   27.1808 C   0  0  0  0  0  0  0  0  0  0  0  0
   12.3692   -0.5559   22.8528 C   0  0  0  0  0  0  0  0  0  0  0  0
   12.1154   -1.9018   23.1167 C   0  0  0  0  0  0  0  0  0  0  0  0
   11.4397    0.4152   23.2253 C   0  0  0  0  0  0  0  0  0  0  0  0
   10.9321   -2.2767   23.7531 C   0  0  0  0  0  0  0  0  0  0  0  0
   10.2565    0.0404   23.8617 C   0  0  0  0  0  0  0  0  0  0  0  0
    5.4304    0.4316   18.5626 C   0  0  0  0  0  0  0  0  0  0  0  0
    5.2935    1.5740   19.3345 C   0  0  0  0  0  0  0  0  0  0  0  0
    8.8452   -4.9528   26.3534 C   0  0  0  0  0  0  0  0  0  0  0  0
    6.0659    0.5041   21.2151 C   0  0  0  0  0  0  0  0  0  0  0  0
    7.8155   -5.1454   24.3086 C   0  0  0  0  0  0  0  0  0  0  0  0
    9.0770   -3.5992   26.1695 C   0  0  0  0  0  0  0  0  0  0  0  0
    5.9128   -0.7171   19.1800 C   0  0  0  0  0  0  0  0  0  0  0  0
    6.2388   -0.6886   20.5314 C   0  0  0  0  0  0  0  0  0  0  0  0
    7.9989   -3.8007   24.0291 C   0  0  0  0  0  0  0  0  0  0  0  0
   10.0026   -1.3055   24.1256 C   0  0  0  0  0  0  0  0  0  0  0  0
    8.6427   -3.0198   24.9825 C   0  0  0  0  0  0  0  0  0  0  0  0
    7.1012   -1.9462   22.5547 C   0  0  0  0  0  0  0  0  0  0  0  0
    6.0698   -1.9632   18.3717 C   0  0  0  0  0  0  0  0  0  0  0  0
   10.2842   -2.2258   28.0024 N   0  0  0  0  0  0  0  0  0  0  0  0
    5.5998    1.6401   20.6495 N   0  0  0  0  0  0  0  0  0  0  0  0
    8.2234   -5.7436   25.4503 N   0  0  0  0  0  0  0  0  0  0  0  0
    6.7335   -1.8306   21.2046 N   0  0  0  0  0  0  0  0  0  0  0  0
    7.5462   -3.2639   22.8241 N   0  0  0  0  0  0  0  0  0  0  0  0
    7.0477   -1.0440   23.3843 O   0  0  0  0  0  0  0  0  0  0  0  0
    8.8472   -1.6709   24.7451 O   0  0  0  0  0  0  0  0  0  0  0  0
   13.2907   -0.2637   22.3578 H   0  0  0  0  0  0  0  0  0  0  0  0
   12.8389   -2.6582   22.8266 H   0  0  0  0  0  0  0  0  0  0  0  0
   11.6382    1.4631   23.0196 H   0  0  0  0  0  0  0  0  0  0  0  0
   10.7397   -3.3270   23.9545 H   0  0  0  0  0  0  0  0  0  0  0  0
    9.5352    0.8011   24.1480 H   0  0  0  0  0  0  0  0  0  0  0  0
    5.1668    0.4425   17.5105 H   0  0  0  0  0  0  0  0  0  0  0  0
    4.9213    2.4962   18.9004 H   0  0  0  0  0  0  0  0  0  0  0  0
    9.1593   -5.4659   27.2579 H   0  0  0  0  0  0  0  0  0  0  0  0
    6.3031    0.5894   22.2714 H   0  0  0  0  0  0  0  0  0  0  0  0
    7.3202   -5.8065   23.6037 H   0  0  0  0  0  0  0  0  0  0  0  0
    7.0713   -2.0043   17.9280 H   0  0  0  0  0  0  0  0  0  0  0  0
    5.9243   -2.8575   18.9900 H   0  0  0  0  0  0  0  0  0  0  0  0
    5.3277   -2.0084   17.5651 H   0  0  0  0  0  0  0  0  0  0  0  0
    6.8351   -2.6710   20.6412 H   0  0  0  0  0  0  0  0  0  0  0  0
    7.5289   -3.8972   22.0174 H   0  0  0  0  0  0  0  0  0  0  0  0
  1 12  1  0  0  0  0
  1 20  3  0  0  0  0
  2  3  1  0  0  0  0
  2  4  2  0  0  0  0
  2 27  1  0  0  0  0
  3  5  2  0  0  0  0
  3 28  1  0  0  0  0
  4  6  1  0  0  0  0
  4 29  1  0  0  0  0
  5 16  1  0  0  0  0
  5 30  1  0  0  0  0
  6 16  2  0  0  0  0
  6 31  1  0  0  0  0
  7  8  2  0  0  0  0
  7 13  1  0  0  0  0
  7 32  1  0  0  0  0
  8 21  1  0  0  0  0
  8 33  1  0  0  0  0
  9 12  2  0  0  0  0
  9 22  1  0  0  0  0
  9 34  1  0  0  0  0
 10 14  1  0  0  0  0
 10 21  2  0  0  0  0
 10 35  1  0  0  0  0
 11 15  1  0  0  0  0
 11 22  2  0  0  0  0
 11 36  1  0  0  0  0
 12 17  1  0  0  0  0
 13 14  2  0  0  0  0
 13 19  1  0  0  0  0
 14 23  1  0  0  0  0
 15 17  2  0  0  0  0
 15 24  1  0  0  0  0
 16 26  1  0  0  0  0
 17 26  1  0  0  0  0
 18 23  1  0  0  0  0
 18 24  1  0  0  0  0
 18 25  2  0  0  0  0
 19 37  1  0  0  0  0
 19 38  1  0  0  0  0
 19 39  1  0  0  0  0
 23 40  1  0  0  0  0
 24 41  1  0  0  0  0
M  END
>  <Chemgauss4 Score>
-4.6288948059082

>  <Number of Confs>
26

$$$$
