DAR-DIA-43a-5
 OpenBabel03242009303D

 40 42  0  0  1  0  0  0  0  0999 V2000
    5.0575   -3.2953   25.9225 C   0  0  0  0  0  0  0  0  0  0  0  0
   13.2431   -1.0692   22.2176 C   0  0  0  0  0  0  0  0  0  0  0  0
    6.4076   -2.9576   25.8298 C   0  0  0  0  0  0  0  0  0  0  0  0
   11.8874   -1.1760   22.5073 C   0  0  0  0  0  0  0  0  0  0  0  0
    4.6200   -4.1487   26.9355 C   0  0  0  0  0  0  0  0  0  0  0  0
    6.8829   -4.3267   27.7629 C   0  0  0  0  0  0  0  0  0  0  0  0
   14.0320   -0.3183   23.0741 C   0  0  0  0  0  0  0  0  0  0  0  0
   12.2422    0.1892   24.4221 C   0  0  0  0  0  0  0  0  0  0  0  0
    7.3203   -3.4733   26.7499 C   0  0  0  0  0  0  0  0  0  0  0  0
   11.3694   -0.5378   23.6287 C   0  0  0  0  0  0  0  0  0  0  0  0
    5.5327   -4.6644   27.8556 C   0  0  0  0  0  0  0  0  0  0  0  0
    9.0095   -1.7395   26.0573 C   0  0  0  0  0  0  0  0  0  0  0  0
    9.5912   -1.7904   24.8517 C   0  0  0  0  0  0  0  0  0  0  0  0
    9.1473   -5.3731   25.5002 C   0  0  0  0  0  0  0  0  0  0  0  0
    8.7877   -3.1067   26.6478 C   0  0  2  0  0  0  0  0  0  0  0  0
    9.8569   -3.2054   24.4292 C   0  0  2  0  0  0  0  0  0  0  0  0
    9.6752   -3.9896   25.7381 C   0  0  2  0  0  0  0  0  0  0  0  0
    9.9039   -0.6350   23.9703 C   0  0  0  0  0  0  0  0  0  0  0  0
   13.5649    0.3159   24.1728 N   0  0  0  0  0  0  0  0  0  0  0  0
    9.5564   -6.2916   26.4379 N   0  0  0  0  0  0  0  0  0  0  0  0
    8.4049   -5.6353   24.5571 O   0  0  0  0  0  0  0  0  0  0  0  0
   11.1793   -3.3696   23.9373 O   0  0  0  0  0  0  0  0  0  0  0  0
    4.9926   -5.7182   29.1044 Cl  0  0  0  0  0  0  0  0  0  0  0  0
    4.3471   -2.8937   25.2057 H   0  0  0  0  0  0  0  0  0  0  0  0
   13.6688   -1.5584   21.3490 H   0  0  0  0  0  0  0  0  0  0  0  0
    6.7396   -2.2920   25.0372 H   0  0  0  0  0  0  0  0  0  0  0  0
   11.2427   -1.7582   21.8544 H   0  0  0  0  0  0  0  0  0  0  0  0
    3.5648   -4.4036   26.9954 H   0  0  0  0  0  0  0  0  0  0  0  0
    7.5984   -4.7257   28.4782 H   0  0  0  0  0  0  0  0  0  0  0  0
   15.0955   -0.2040   22.8916 H   0  0  0  0  0  0  0  0  0  0  0  0
   11.8957    0.7086   25.3102 H   0  0  0  0  0  0  0  0  0  0  0  0
    8.7091   -0.8248   26.5507 H   0  0  0  0  0  0  0  0  0  0  0  0
    9.2055   -3.1305   27.6877 H   0  0  0  0  0  0  0  0  0  0  0  0
    9.1487   -3.5118   23.6427 H   0  0  0  0  0  0  0  0  0  0  0  0
   10.6578   -4.1183   26.2258 H   0  0  0  0  0  0  0  0  0  0  0  0
    9.5835    0.2967   24.4559 H   0  0  0  0  0  0  0  0  0  0  0  0
    9.3111   -0.7070   23.0489 H   0  0  0  0  0  0  0  0  0  0  0  0
   10.1605   -5.9816   27.1920 H   0  0  0  0  0  0  0  0  0  0  0  0
    9.2785   -7.2672   26.4062 H   0  0  0  0  0  0  0  0  0  0  0  0
   11.7813   -3.1257   24.6596 H   0  0  0  0  0  0  0  0  0  0  0  0
  1  3  2  0  0  0  0
  1  5  1  0  0  0  0
  1 24  1  0  0  0  0
  2  4  2  0  0  0  0
  2  7  1  0  0  0  0
  2 25  1  0  0  0  0
  3  9  1  0  0  0  0
  3 26  1  0  0  0  0
  4 10  1  0  0  0  0
  4 27  1  0  0  0  0
  5 11  2  0  0  0  0
  5 28  1  0  0  0  0
  6  9  2  0  0  0  0
  6 11  1  0  0  0  0
  6 29  1  0  0  0  0
  7 19  2  0  0  0  0
  7 30  1  0  0  0  0
  8 10  2  0  0  0  0
  8 19  1  0  0  0  0
  8 31  1  0  0  0  0
  9 15  1  0  0  0  0
 10 18  1  0  0  0  0
 11 23  1  0  0  0  0
 12 13  2  0  0  0  0
 12 15  1  0  0  0  0
 12 32  1  0  0  0  0
 13 16  1  0  0  0  0
 13 18  1  0  0  0  0
 14 17  1  0  0  0  0
 14 20  1  0  0  0  0
 14 21  2  0  0  0  0
 15 17  1  0  0  0  0
 15 33  1  1  0  0  0
 16 17  1  0  0  0  0
 16 22  1  0  0  0  0
 16 34  1  6  0  0  0
 17 35  1  1  0  0  0
 18 36  1  0  0  0  0
 18 37  1  0  0  0  0
 20 38  1  0  0  0  0
 20 39  1  0  0  0  0
 22 40  1  0  0  0  0
M  END
>  <Chemgauss4 Score>
-5.20160961151123

>  <Number of Confs>
197

$$$$
