KIM-UNI-7d1-4
 OpenBabel03242009303D

 40 42  0  0  1  0  0  0  0  0999 V2000
    6.8531   -6.0445   26.1642 C   0  0  0  0  0  0  0  0  0  0  0  0
    5.9137   -5.7705   25.1713 C   0  0  0  0  0  0  0  0  0  0  0  0
    6.8463   -3.5624   24.9111 C   0  0  0  0  0  0  0  0  0  0  0  0
    7.8197   -3.8336   25.8888 C   0  0  0  0  0  0  0  0  0  0  0  0
    7.7987   -5.0812   26.5521 C   0  0  0  0  0  0  0  0  0  0  0  0
    5.9050   -4.5267   24.5514 C   0  0  0  0  0  0  0  0  0  0  0  0
   12.6622   -0.8417   22.7791 C   0  0  0  0  0  0  0  0  0  0  0  0
   10.0340   -3.4175   27.0273 C   0  0  0  0  0  0  0  0  0  0  0  0
    9.5491   -4.3559   28.1235 C   0  0  0  0  0  0  0  0  0  0  0  0
   10.9155   -0.1856   24.5037 C   0  0  0  0  0  0  0  0  0  0  0  0
   10.5460   -2.1007   23.0004 C   0  0  0  0  0  0  0  0  0  0  0  0
   10.3626   -1.0207   25.6601 C   0  0  0  0  0  0  0  0  0  0  0  0
   10.0065   -2.9005   24.1856 C   0  0  0  0  0  0  0  0  0  0  0  0
    8.8426   -2.7812   26.2930 C   0  0  1  0  0  0  0  0  0  0  0  0
   13.4728    0.3572   23.2027 C   0  0  0  0  0  0  0  0  0  0  0  0
    8.7071   -5.3886   27.5584 N   0  0  0  0  0  0  0  0  0  0  0  0
   11.4529   -1.0427   23.4429 N   0  0  0  0  0  0  0  0  0  0  0  0
    9.3870   -2.0089   25.1769 N   0  0  0  0  0  0  0  0  0  0  0  0
   13.0936   -1.5782   21.8884 O   0  0  0  0  0  0  0  0  0  0  0  0
    4.7320   -4.1737   23.3422 Cl  0  0  0  0  0  0  0  0  0  0  0  0
    6.8460   -7.0241   26.6382 H   0  0  0  0  0  0  0  0  0  0  0  0
    5.1959   -6.5374   24.8944 H   0  0  0  0  0  0  0  0  0  0  0  0
    6.8294   -2.5830   24.4323 H   0  0  0  0  0  0  0  0  0  0  0  0
   10.6506   -2.6301   27.4741 H   0  0  0  0  0  0  0  0  0  0  0  0
   10.6745   -3.9580   26.3252 H   0  0  0  0  0  0  0  0  0  0  0  0
   10.3926   -4.8169   28.6469 H   0  0  0  0  0  0  0  0  0  0  0  0
    8.9771   -3.7933   28.8671 H   0  0  0  0  0  0  0  0  0  0  0  0
   10.1191    0.4196   24.0530 H   0  0  0  0  0  0  0  0  0  0  0  0
   11.6685    0.5054   24.8877 H   0  0  0  0  0  0  0  0  0  0  0  0
   11.0491   -2.7739   22.2986 H   0  0  0  0  0  0  0  0  0  0  0  0
    9.7253   -1.6167   22.4566 H   0  0  0  0  0  0  0  0  0  0  0  0
   11.1911   -1.5113   26.1882 H   0  0  0  0  0  0  0  0  0  0  0  0
    9.8784   -0.3413   26.3720 H   0  0  0  0  0  0  0  0  0  0  0  0
    9.2596   -3.6097   23.8085 H   0  0  0  0  0  0  0  0  0  0  0  0
   10.8179   -3.4881   24.6354 H   0  0  0  0  0  0  0  0  0  0  0  0
    8.3858   -2.0702   26.9939 H   0  0  0  0  0  0  0  0  0  0  0  0
   14.1439    0.0666   24.0041 H   0  0  0  0  0  0  0  0  0  0  0  0
   12.8008    1.1372   23.5461 H   0  0  0  0  0  0  0  0  0  0  0  0
   14.0437    0.7179   22.3532 H   0  0  0  0  0  0  0  0  0  0  0  0
    8.9117   -6.3558   27.7589 H   0  0  0  0  0  0  0  0  0  0  0  0
  1  2  2  0  0  0  0
  1  5  1  0  0  0  0
  1 21  1  0  0  0  0
  2  6  1  0  0  0  0
  2 22  1  0  0  0  0
  3  4  1  0  0  0  0
  3  6  2  0  0  0  0
  3 23  1  0  0  0  0
  4  5  2  0  0  0  0
  4 14  1  0  0  0  0
  5 16  1  0  0  0  0
  6 20  1  0  0  0  0
  7 15  1  0  0  0  0
  7 17  1  0  0  0  0
  7 19  2  0  0  0  0
  8  9  1  0  0  0  0
  8 14  1  0  0  0  0
  8 24  1  0  0  0  0
  8 25  1  0  0  0  0
  9 16  1  0  0  0  0
  9 26  1  0  0  0  0
  9 27  1  0  0  0  0
 10 12  1  0  0  0  0
 10 17  1  0  0  0  0
 10 28  1  0  0  0  0
 10 29  1  0  0  0  0
 11 13  1  0  0  0  0
 11 17  1  0  0  0  0
 11 30  1  0  0  0  0
 11 31  1  0  0  0  0
 12 18  1  0  0  0  0
 12 32  1  0  0  0  0
 12 33  1  0  0  0  0
 13 18  1  0  0  0  0
 13 34  1  0  0  0  0
 13 35  1  0  0  0  0
 14 18  1  0  0  0  0
 14 36  1  1  0  0  0
 15 37  1  0  0  0  0
 15 38  1  0  0  0  0
 15 39  1  0  0  0  0
 16 40  1  0  0  0  0
M  END
>  <Chemgauss4 Score>
-5.23730802536011

>  <Number of Confs>
7

$$$$
