DAR-DIA-23a-20
 OpenBabel03242009303D

 34 36  0  0  0  0  0  0  0  0999 V2000
   13.4355    0.7036   22.5871 C   0  0  0  0  0  0  0  0  0  0  0  0
    8.5855   -1.6443   28.5605 C   0  0  0  0  0  0  0  0  0  0  0  0
    8.9163   -1.1598   27.2971 C   0  0  0  0  0  0  0  0  0  0  0  0
   12.2125    1.2066   23.0310 C   0  0  0  0  0  0  0  0  0  0  0  0
   13.5928   -0.6672   22.3822 C   0  0  0  0  0  0  0  0  0  0  0  0
    8.2444   -2.9864   28.7264 C   0  0  0  0  0  0  0  0  0  0  0  0
    8.9076   -2.0152   26.1940 C   0  0  0  0  0  0  0  0  0  0  0  0
   11.1469    0.3389   23.2700 C   0  0  0  0  0  0  0  0  0  0  0  0
   12.5272   -1.5349   22.6213 C   0  0  0  0  0  0  0  0  0  0  0  0
    7.8988   -5.2077   27.7324 C   0  0  0  0  0  0  0  0  0  0  0  0
    8.2013   -5.5749   25.4855 C   0  0  0  0  0  0  0  0  0  0  0  0
    8.2323   -3.8562   27.6235 C   0  0  0  0  0  0  0  0  0  0  0  0
    8.5667   -3.3695   26.3428 C   0  0  0  0  0  0  0  0  0  0  0  0
    8.5487   -4.2522   25.2567 C   0  0  0  0  0  0  0  0  0  0  0  0
   11.3042   -1.0319   23.0652 C   0  0  0  0  0  0  0  0  0  0  0  0
   10.2859   -3.2409   23.7197 C   0  0  0  0  0  0  0  0  0  0  0  0
    8.8868   -3.8327   23.8645 C   0  0  0  0  0  0  0  0  0  0  0  0
    7.8756   -6.0759   26.6961 N   0  0  0  0  0  0  0  0  0  0  0  0
   10.2229   -1.9121   23.3076 N   0  0  0  0  0  0  0  0  0  0  0  0
   11.2946   -3.9005   23.9491 O   0  0  0  0  0  0  0  0  0  0  0  0
   14.2652    1.3791   22.4001 H   0  0  0  0  0  0  0  0  0  0  0  0
    8.5932   -0.9765   29.4170 H   0  0  0  0  0  0  0  0  0  0  0  0
    9.1820   -0.1143   27.1698 H   0  0  0  0  0  0  0  0  0  0  0  0
   12.0894    2.2739   23.1898 H   0  0  0  0  0  0  0  0  0  0  0  0
   14.5449   -1.0584   22.0356 H   0  0  0  0  0  0  0  0  0  0  0  0
    7.9891   -3.3475   29.7200 H   0  0  0  0  0  0  0  0  0  0  0  0
    9.1712   -1.6009   25.2237 H   0  0  0  0  0  0  0  0  0  0  0  0
   10.1984    0.7424   23.6156 H   0  0  0  0  0  0  0  0  0  0  0  0
   12.6614   -2.6014   22.4581 H   0  0  0  0  0  0  0  0  0  0  0  0
    7.6313   -5.6466   28.6898 H   0  0  0  0  0  0  0  0  0  0  0  0
    8.1735   -6.2973   24.6751 H   0  0  0  0  0  0  0  0  0  0  0  0
    8.8059   -4.6904   23.1771 H   0  0  0  0  0  0  0  0  0  0  0  0
    8.1598   -3.0868   23.5048 H   0  0  0  0  0  0  0  0  0  0  0  0
    9.2906   -1.5295   23.1642 H   0  0  0  0  0  0  0  0  0  0  0  0
  1  4  1  0  0  0  0
  1  5  2  0  0  0  0
  1 21  1  0  0  0  0
  2  3  1  0  0  0  0
  2  6  2  0  0  0  0
  2 22  1  0  0  0  0
  3  7  2  0  0  0  0
  3 23  1  0  0  0  0
  4  8  2  0  0  0  0
  4 24  1  0  0  0  0
  5  9  1  0  0  0  0
  5 25  1  0  0  0  0
  6 12  1  0  0  0  0
  6 26  1  0  0  0  0
  7 13  1  0  0  0  0
  7 27  1  0  0  0  0
  8 15  1  0  0  0  0
  8 28  1  0  0  0  0
  9 15  2  0  0  0  0
  9 29  1  0  0  0  0
 10 12  2  0  0  0  0
 10 18  1  0  0  0  0
 10 30  1  0  0  0  0
 11 14  1  0  0  0  0
 11 18  2  0  0  0  0
 11 31  1  0  0  0  0
 12 13  1  0  0  0  0
 13 14  2  0  0  0  0
 14 17  1  0  0  0  0
 15 19  1  0  0  0  0
 16 17  1  0  0  0  0
 16 19  1  0  0  0  0
 16 20  2  0  0  0  0
 17 32  1  0  0  0  0
 17 33  1  0  0  0  0
 19 34  1  0  0  0  0
M  END
>  <Chemgauss4 Score>
-4.78901290893555

>  <Number of Confs>
30

$$$$
