DUN-NEW-f8c-1
 OpenBabel03242009303D

 42 44  0  0  1  0  0  0  0  0999 V2000
    4.6599   -5.2262   23.2047 C   0  0  0  0  0  0  0  0  0  0  0  0
    4.8756   -5.3471   24.5775 C   0  0  0  0  0  0  0  0  0  0  0  0
    5.5763   -4.5341   22.4130 C   0  0  0  0  0  0  0  0  0  0  0  0
    6.0077   -4.7758   25.1586 C   0  0  0  0  0  0  0  0  0  0  0  0
    6.7084   -3.9628   22.9941 C   0  0  0  0  0  0  0  0  0  0  0  0
    6.9241   -4.0836   24.3669 C   0  0  0  0  0  0  0  0  0  0  0  0
    9.6009   -4.9950   26.3581 C   0  0  0  0  0  0  0  0  0  0  0  0
   12.0182   -2.0342   22.5561 C   0  0  0  0  0  0  0  0  0  0  0  0
   11.1166   -0.6993   24.4810 C   0  0  0  0  0  0  0  0  0  0  0  0
    8.6668   -2.1986   24.2826 C   0  0  0  0  0  0  0  0  0  0  0  0
   10.5323   -3.5691   24.5380 C   0  0  0  0  0  0  0  0  0  0  0  0
   12.9797   -0.8811   22.2985 C   0  0  0  0  0  0  0  0  0  0  0  0
   12.1274    0.3799   24.1144 C   0  0  0  0  0  0  0  0  0  0  0  0
    8.1551   -3.4620   24.9981 C   0  0  2  0  0  0  0  0  0  0  0  0
    9.3575   -4.4261   24.9949 C   0  0  2  0  0  0  0  0  0  0  0  0
   10.7521   -1.5358   23.2535 C   0  0  0  0  0  0  0  0  0  0  0  0
    9.8932   -2.6372   23.6105 N   0  0  2  0  0  0  0  0  0  0  0  0
   10.7134   -5.7994   26.4326 N   0  0  0  0  0  0  0  0  0  0  0  0
    8.8704   -4.7393   27.3122 O   0  0  0  0  0  0  0  0  0  0  0  0
   13.2865   -0.1963   23.5128 O   0  0  0  0  0  0  0  0  0  0  0  0
    3.7790   -5.6723   22.7522 H   0  0  0  0  0  0  0  0  0  0  0  0
    4.1627   -5.8870   25.1939 H   0  0  0  0  0  0  0  0  0  0  0  0
    5.4093   -4.4407   21.3440 H   0  0  0  0  0  0  0  0  0  0  0  0
    6.1674   -4.8749   26.2290 H   0  0  0  0  0  0  0  0  0  0  0  0
    7.4169   -3.4252   22.3694 H   0  0  0  0  0  0  0  0  0  0  0  0
   11.7262   -2.4648   21.5934 H   0  0  0  0  0  0  0  0  0  0  0  0
   12.5101   -2.8205   23.1327 H   0  0  0  0  0  0  0  0  0  0  0  0
   11.4980   -1.3222   25.2916 H   0  0  0  0  0  0  0  0  0  0  0  0
   10.2054   -0.2128   24.8397 H   0  0  0  0  0  0  0  0  0  0  0  0
    7.9467   -1.7770   23.5727 H   0  0  0  0  0  0  0  0  0  0  0  0
    8.8915   -1.4337   25.0381 H   0  0  0  0  0  0  0  0  0  0  0  0
   11.0053   -3.0508   25.3829 H   0  0  0  0  0  0  0  0  0  0  0  0
   11.2947   -4.1766   24.0382 H   0  0  0  0  0  0  0  0  0  0  0  0
   13.9085   -1.2208   21.8247 H   0  0  0  0  0  0  0  0  0  0  0  0
   12.5155   -0.1577   21.6198 H   0  0  0  0  0  0  0  0  0  0  0  0
   11.6852    1.0681   23.3873 H   0  0  0  0  0  0  0  0  0  0  0  0
   12.4254    0.9717   24.9873 H   0  0  0  0  0  0  0  0  0  0  0  0
    7.8620   -3.1936   26.0468 H   0  0  0  0  0  0  0  0  0  0  0  0
    9.2045   -5.2641   24.3000 H   0  0  0  0  0  0  0  0  0  0  0  0
   10.1933   -0.8896   22.5420 H   0  0  0  0  0  0  0  0  0  0  0  0
   11.2667   -5.9442   25.5945 H   0  0  0  0  0  0  0  0  0  0  0  0
   11.0034   -6.2542   27.2923 H   0  0  0  0  0  0  0  0  0  0  0  0
  1  2  1  0  0  0  0
  1  3  2  0  0  0  0
  1 21  1  0  0  0  0
  2  4  2  0  0  0  0
  2 22  1  0  0  0  0
  3  5  1  0  0  0  0
  3 23  1  0  0  0  0
  4  6  1  0  0  0  0
  4 24  1  0  0  0  0
  5  6  2  0  0  0  0
  5 25  1  0  0  0  0
  6 14  1  0  0  0  0
  7 15  1  0  0  0  0
  7 18  1  0  0  0  0
  7 19  2  0  0  0  0
  8 12  1  0  0  0  0
  8 16  1  0  0  0  0
  8 26  1  0  0  0  0
  8 27  1  0  0  0  0
  9 13  1  0  0  0  0
  9 16  1  0  0  0  0
  9 28  1  0  0  0  0
  9 29  1  0  0  0  0
 10 14  1  0  0  0  0
 10 17  1  0  0  0  0
 10 30  1  0  0  0  0
 10 31  1  0  0  0  0
 11 15  1  0  0  0  0
 11 17  1  0  0  0  0
 11 32  1  0  0  0  0
 11 33  1  0  0  0  0
 12 20  1  0  0  0  0
 12 34  1  0  0  0  0
 12 35  1  0  0  0  0
 13 20  1  0  0  0  0
 13 36  1  0  0  0  0
 13 37  1  0  0  0  0
 14 15  1  0  0  0  0
 14 38  1  1  0  0  0
 15 39  1  6  0  0  0
 16 40  1  0  0  0  0
 17 16  1  1  0  0  0
 18 41  1  0  0  0  0
 18 42  1  0  0  0  0
M  END
>  <Chemgauss4 Score>
-5.77880239486694

>  <Number of Confs>
27

$$$$
