DAR-DIA-43a-7
 OpenBabel03242009303D

 40 42  0  0  1  0  0  0  0  0999 V2000
   13.8182   -0.8634   22.5021 C   0  0  0  0  0  0  0  0  0  0  0  0
   13.4149   -0.1978   23.6596 C   0  0  0  0  0  0  0  0  0  0  0  0
   12.8704   -1.4840   21.6882 C   0  0  0  0  0  0  0  0  0  0  0  0
    5.6930   -6.4033   25.1728 C   0  0  0  0  0  0  0  0  0  0  0  0
    6.4351   -5.3970   25.7910 C   0  0  0  0  0  0  0  0  0  0  0  0
   12.0638   -0.1528   24.0033 C   0  0  0  0  0  0  0  0  0  0  0  0
   11.5193   -1.4389   22.0319 C   0  0  0  0  0  0  0  0  0  0  0  0
    5.6576   -6.4890   23.7809 C   0  0  0  0  0  0  0  0  0  0  0  0
    7.1064   -4.5618   23.6256 C   0  0  0  0  0  0  0  0  0  0  0  0
    7.1418   -4.4762   25.0174 C   0  0  0  0  0  0  0  0  0  0  0  0
   11.1160   -0.7733   23.1895 C   0  0  0  0  0  0  0  0  0  0  0  0
    6.3643   -5.5682   23.0074 C   0  0  0  0  0  0  0  0  0  0  0  0
    8.0059   -2.1166   24.8777 C   0  0  0  0  0  0  0  0  0  0  0  0
    9.2380   -1.8640   24.4185 C   0  0  0  0  0  0  0  0  0  0  0  0
    9.8175   -5.1156   26.0065 C   0  0  0  0  0  0  0  0  0  0  0  0
   10.2171   -2.9123   24.8465 C   0  0  0  0  0  0  0  0  0  0  0  0
    7.9470   -3.3821   25.6899 C   0  0  2  0  0  0  0  0  0  0  0  0
    9.4478   -3.6654   25.9386 C   0  0  1  0  0  0  0  0  0  0  0  0
    9.6548   -0.7252   23.5607 C   0  0  0  0  0  0  0  0  0  0  0  0
    9.7142   -5.6558   27.2666 N   0  0  0  0  0  0  0  0  0  0  0  0
   10.1622   -5.7487   25.0116 O   0  0  0  0  0  0  0  0  0  0  0  0
    6.3194   -5.6736   21.2902 Cl  0  0  0  0  0  0  0  0  0  0  0  0
   14.8701   -0.8973   22.2339 H   0  0  0  0  0  0  0  0  0  0  0  0
   14.1526    0.2863   24.2929 H   0  0  0  0  0  0  0  0  0  0  0  0
   13.1840   -2.0013   20.7864 H   0  0  0  0  0  0  0  0  0  0  0  0
    5.1428   -7.1201   25.7755 H   0  0  0  0  0  0  0  0  0  0  0  0
    6.4569   -5.3378   26.8760 H   0  0  0  0  0  0  0  0  0  0  0  0
   11.7587    0.3680   24.9072 H   0  0  0  0  0  0  0  0  0  0  0  0
   10.7880   -1.9253   21.3919 H   0  0  0  0  0  0  0  0  0  0  0  0
    5.0748   -7.2784   23.3127 H   0  0  0  0  0  0  0  0  0  0  0  0
    7.6595   -3.8418   23.0269 H   0  0  0  0  0  0  0  0  0  0  0  0
    7.1545   -1.4623   24.7231 H   0  0  0  0  0  0  0  0  0  0  0  0
   10.5048   -3.5605   24.0128 H   0  0  0  0  0  0  0  0  0  0  0  0
   11.1157   -2.4369   25.2535 H   0  0  0  0  0  0  0  0  0  0  0  0
    7.4453   -3.1470   26.6414 H   0  0  0  0  0  0  0  0  0  0  0  0
    9.7306   -3.2427   26.9540 H   0  0  0  0  0  0  0  0  0  0  0  0
    9.4447    0.2223   24.0758 H   0  0  0  0  0  0  0  0  0  0  0  0
    9.0409   -0.7080   22.6501 H   0  0  0  0  0  0  0  0  0  0  0  0
    9.4080   -5.0596   28.0284 H   0  0  0  0  0  0  0  0  0  0  0  0
    9.9318   -6.6269   27.4654 H   0  0  0  0  0  0  0  0  0  0  0  0
  1  2  1  0  0  0  0
  1  3  2  0  0  0  0
  1 23  1  0  0  0  0
  2  6  2  0  0  0  0
  2 24  1  0  0  0  0
  3  7  1  0  0  0  0
  3 25  1  0  0  0  0
  4  5  2  0  0  0  0
  4  8  1  0  0  0  0
  4 26  1  0  0  0  0
  5 10  1  0  0  0  0
  5 27  1  0  0  0  0
  6 11  1  0  0  0  0
  6 28  1  0  0  0  0
  7 11  2  0  0  0  0
  7 29  1  0  0  0  0
  8 12  2  0  0  0  0
  8 30  1  0  0  0  0
  9 10  2  0  0  0  0
  9 12  1  0  0  0  0
  9 31  1  0  0  0  0
 10 17  1  0  0  0  0
 11 19  1  0  0  0  0
 12 22  1  0  0  0  0
 13 14  2  0  0  0  0
 13 17  1  0  0  0  0
 13 32  1  0  0  0  0
 14 16  1  0  0  0  0
 14 19  1  0  0  0  0
 15 18  1  0  0  0  0
 15 20  1  0  0  0  0
 15 21  2  0  0  0  0
 16 18  1  0  0  0  0
 16 33  1  0  0  0  0
 16 34  1  0  0  0  0
 17 18  1  0  0  0  0
 17 35  1  1  0  0  0
 18 36  1  1  0  0  0
 19 37  1  0  0  0  0
 19 38  1  0  0  0  0
 20 39  1  0  0  0  0
 20 40  1  0  0  0  0
M  END
>  <Chemgauss4 Score>
-6.95997047424316

>  <Number of Confs>
146

$$$$
