DAR-DIA-43a-4
 OpenBabel03242009303D

 42 44  0  0  1  0  0  0  0  0999 V2000
    5.7070   -6.0693   25.9416 C   0  0  0  0  0  0  0  0  0  0  0  0
   13.4226   -0.1805   22.5674 C   0  0  0  0  0  0  0  0  0  0  0  0
    6.5936   -5.1318   26.4713 C   0  0  0  0  0  0  0  0  0  0  0  0
    5.5594   -6.1865   24.5595 C   0  0  0  0  0  0  0  0  0  0  0  0
   12.4701    0.1354   23.5297 C   0  0  0  0  0  0  0  0  0  0  0  0
    7.1850   -4.4287   24.2368 C   0  0  0  0  0  0  0  0  0  0  0  0
   13.2804   -1.3764   21.8822 C   0  0  0  0  0  0  0  0  0  0  0  0
   11.3667   -1.9125   23.0347 C   0  0  0  0  0  0  0  0  0  0  0  0
    7.3326   -4.3115   25.6189 C   0  0  0  0  0  0  0  0  0  0  0  0
    6.2984   -5.3662   23.7071 C   0  0  0  0  0  0  0  0  0  0  0  0
   11.4193   -0.7419   23.7740 C   0  0  0  0  0  0  0  0  0  0  0  0
    8.5156   -2.0431   25.3946 C   0  0  0  0  0  0  0  0  0  0  0  0
    9.7928   -1.6446   25.4372 C   0  0  0  0  0  0  0  0  0  0  0  0
   10.1671   -4.8638   25.4394 C   0  0  0  0  0  0  0  0  0  0  0  0
   10.6377   -2.5709   26.2587 C   0  0  0  0  0  0  0  0  0  0  0  0
    8.2953   -3.2959   26.1943 C   0  0  2  0  0  0  0  0  0  0  0  0
    9.7379   -3.8054   26.4209 C   0  0  1  0  0  0  0  0  0  0  0  0
   10.3698   -0.4277   24.8109 C   0  0  0  0  0  0  0  0  0  0  0  0
    6.1399   -5.4912   22.2293 C   0  0  0  0  0  0  0  0  0  0  0  0
   12.2735   -2.2536   22.0918 N   0  0  0  0  0  0  0  0  0  0  0  0
   10.5444   -6.0470   26.0294 N   0  0  0  0  0  0  0  0  0  0  0  0
   10.1568   -4.6715   24.2260 O   0  0  0  0  0  0  0  0  0  0  0  0
    5.2395   -6.4474   21.8542 F   0  0  0  0  0  0  0  0  0  0  0  0
    5.7117   -4.3428   21.6264 F   0  0  0  0  0  0  0  0  0  0  0  0
    7.3066   -5.8209   21.6023 F   0  0  0  0  0  0  0  0  0  0  0  0
    5.1316   -6.7081   26.6055 H   0  0  0  0  0  0  0  0  0  0  0  0
   14.2501    0.4884   22.3600 H   0  0  0  0  0  0  0  0  0  0  0  0
    6.7024   -5.0480   27.5496 H   0  0  0  0  0  0  0  0  0  0  0  0
    4.8657   -6.9192   24.1557 H   0  0  0  0  0  0  0  0  0  0  0  0
   12.5543    1.0663   24.0838 H   0  0  0  0  0  0  0  0  0  0  0  0
    7.7616   -3.7901   23.5718 H   0  0  0  0  0  0  0  0  0  0  0  0
   13.9974   -1.6687   21.1219 H   0  0  0  0  0  0  0  0  0  0  0  0
   10.5701   -2.6353   23.1813 H   0  0  0  0  0  0  0  0  0  0  0  0
    7.7265   -1.5057   24.8860 H   0  0  0  0  0  0  0  0  0  0  0  0
   11.5834   -2.8046   25.7585 H   0  0  0  0  0  0  0  0  0  0  0  0
   10.8547   -2.1117   27.2296 H   0  0  0  0  0  0  0  0  0  0  0  0
    7.8724   -2.9911   27.1870 H   0  0  0  0  0  0  0  0  0  0  0  0
    9.8472   -4.2434   27.4216 H   0  0  0  0  0  0  0  0  0  0  0  0
   10.8100    0.2144   25.5863 H   0  0  0  0  0  0  0  0  0  0  0  0
    9.5660    0.1675   24.3569 H   0  0  0  0  0  0  0  0  0  0  0  0
   10.5084   -6.1200   27.0408 H   0  0  0  0  0  0  0  0  0  0  0  0
   10.8574   -6.8502   25.4939 H   0  0  0  0  0  0  0  0  0  0  0  0
  1  3  2  0  0  0  0
  1  4  1  0  0  0  0
  1 26  1  0  0  0  0
  2  5  2  0  0  0  0
  2  7  1  0  0  0  0
  2 27  1  0  0  0  0
  3  9  1  0  0  0  0
  3 28  1  0  0  0  0
  4 10  2  0  0  0  0
  4 29  1  0  0  0  0
  5 11  1  0  0  0  0
  5 30  1  0  0  0  0
  6  9  2  0  0  0  0
  6 10  1  0  0  0  0
  6 31  1  0  0  0  0
  7 20  2  0  0  0  0
  7 32  1  0  0  0  0
  8 11  2  0  0  0  0
  8 20  1  0  0  0  0
  8 33  1  0  0  0  0
  9 16  1  0  0  0  0
 10 19  1  0  0  0  0
 11 18  1  0  0  0  0
 12 13  2  0  0  0  0
 12 16  1  0  0  0  0
 12 34  1  0  0  0  0
 13 15  1  0  0  0  0
 13 18  1  0  0  0  0
 14 17  1  0  0  0  0
 14 21  1  0  0  0  0
 14 22  2  0  0  0  0
 15 17  1  0  0  0  0
 15 35  1  0  0  0  0
 15 36  1  0  0  0  0
 16 17  1  0  0  0  0
 16 37  1  1  0  0  0
 17 38  1  1  0  0  0
 18 39  1  0  0  0  0
 18 40  1  0  0  0  0
 19 23  1  0  0  0  0
 19 24  1  0  0  0  0
 19 25  1  0  0  0  0
 21 41  1  0  0  0  0
 21 42  1  0  0  0  0
M  END
>  <Chemgauss4 Score>
-8.98985767364502

>  <Number of Confs>
200

$$$$
