JOH-MSK-a63-6
 OpenBabel03242009303D

 49 51  0  0  1  0  0  0  0  0999 V2000
    9.9024   -5.6758   25.7718 C   0  0  0  0  0  0  0  0  0  0  0  0
   10.5655   -4.5500   25.2751 C   0  0  0  0  0  0  0  0  0  0  0  0
    8.4702   -3.3433   25.0504 C   0  0  0  0  0  0  0  0  0  0  0  0
    6.3374   -6.0368   26.2981 C   0  0  0  0  0  0  0  0  0  0  0  0
    7.7799   -4.4660   25.5489 C   0  0  0  0  0  0  0  0  0  0  0  0
    6.4104   -4.7536   25.8072 C   0  0  0  0  0  0  0  0  0  0  0  0
    8.5105   -5.6041   25.8973 C   0  0  0  0  0  0  0  0  0  0  0  0
    9.8625   -3.4007   24.9194 C   0  0  0  0  0  0  0  0  0  0  0  0
    8.5412   -0.0941   21.4395 C   0  0  0  0  0  0  0  0  0  0  0  0
    4.7262   -5.9331   22.7447 C   0  0  0  0  0  0  0  0  0  0  0  0
    9.6394   -0.4804   22.4076 C   0  0  1  0  0  0  0  0  0  0  0  0
   10.7007    0.6148   22.4350 C   0  0  2  0  0  0  0  0  0  0  0  0
   11.7519    0.2801   23.4986 C   0  0  2  0  0  0  0  0  0  0  0  0
   11.0738    0.0169   24.8452 C   0  0  1  0  0  0  0  0  0  0  0  0
    9.9665   -1.0346   24.7033 C   0  0  1  0  0  0  0  0  0  0  0  0
    5.3395   -5.9894   21.3849 C   0  0  0  0  0  0  0  0  0  0  0  0
    5.2656   -3.8458   25.5923 C   0  0  0  0  0  0  0  0  0  0  0  0
    4.1998   -4.3972   24.6278 C   0  0  0  0  0  0  0  0  0  0  0  0
    7.6091   -6.5415   26.3490 N   0  0  0  0  0  0  0  0  0  0  0  0
    4.7401   -4.6744   23.3239 N   0  0  0  0  0  0  0  0  0  0  0  0
    8.9098    0.6106   20.4594 O   0  5  0  0  0  0  0  0  0  0  0  0
    7.3939   -0.5288   21.7393 O   0  0  0  0  0  0  0  0  0  0  0  0
    4.2676   -6.9542   23.2434 O   0  0  0  0  0  0  0  0  0  0  0  0
    9.0325   -0.6483   23.6897 O   0  0  0  0  0  0  0  0  0  0  0  0
   10.0753    1.8578   22.7711 O   0  0  0  0  0  0  0  0  0  0  0  0
   12.6675    1.3634   23.6361 O   0  0  0  0  0  0  0  0  0  0  0  0
   12.0476   -0.4194   25.7882 O   0  0  0  0  0  0  0  0  0  0  0  0
   10.5394   -2.3142   24.4370 O   0  0  0  0  0  0  0  0  0  0  0  0
   10.4507   -6.5703   26.0479 H   0  0  0  0  0  0  0  0  0  0  0  0
   11.6473   -4.5795   25.1663 H   0  0  0  0  0  0  0  0  0  0  0  0
    7.9307   -2.4423   24.7709 H   0  0  0  0  0  0  0  0  0  0  0  0
    5.4959   -6.6367   26.6157 H   0  0  0  0  0  0  0  0  0  0  0  0
   10.0655   -1.4315   22.0680 H   0  0  0  0  0  0  0  0  0  0  0  0
   11.1673    0.7462   21.4524 H   0  0  0  0  0  0  0  0  0  0  0  0
   12.3359   -0.5961   23.1935 H   0  0  0  0  0  0  0  0  0  0  0  0
   10.6524    0.9564   25.2235 H   0  0  0  0  0  0  0  0  0  0  0  0
    9.4249   -1.1145   25.6522 H   0  0  0  0  0  0  0  0  0  0  0  0
    6.4190   -6.2073   21.4191 H   0  0  0  0  0  0  0  0  0  0  0  0
    4.9019   -6.7836   20.7588 H   0  0  0  0  0  0  0  0  0  0  0  0
    5.2487   -5.0676   20.7884 H   0  0  0  0  0  0  0  0  0  0  0  0
    5.6195   -2.8766   25.1885 H   0  0  0  0  0  0  0  0  0  0  0  0
    4.7734   -3.5836   26.5507 H   0  0  0  0  0  0  0  0  0  0  0  0
    3.7801   -5.3364   25.0018 H   0  0  0  0  0  0  0  0  0  0  0  0
    3.3792   -3.6834   24.5004 H   0  0  0  0  0  0  0  0  0  0  0  0
    7.8519   -7.4682   26.6708 H   0  0  0  0  0  0  0  0  0  0  0  0
    5.1543   -3.9056   22.7992 H   0  0  0  0  0  0  0  0  0  0  0  0
    9.4160    2.0230   22.0820 H   0  0  0  0  0  0  0  0  0  0  0  0
   13.0846    1.4849   22.7690 H   0  0  0  0  0  0  0  0  0  0  0  0
   11.5768   -0.5737   26.6223 H   0  0  0  0  0  0  0  0  0  0  0  0
  1  2  2  0  0  0  0
  1  7  1  0  0  0  0
  1 29  1  0  0  0  0
  2  8  1  0  0  0  0
  2 30  1  0  0  0  0
  3  5  1  0  0  0  0
  3  8  2  0  0  0  0
  3 31  1  0  0  0  0
  4  6  2  0  0  0  0
  4 19  1  0  0  0  0
  4 32  1  0  0  0  0
  5  6  1  0  0  0  0
  5  7  2  0  0  0  0
  6 17  1  0  0  0  0
  7 19  1  0  0  0  0
  8 28  1  0  0  0  0
  9 11  1  0  0  0  0
  9 21  1  0  0  0  0
  9 22  2  0  0  0  0
 10 16  1  0  0  0  0
 10 20  1  0  0  0  0
 10 23  2  0  0  0  0
 11 12  1  0  0  0  0
 11 24  1  0  0  0  0
 11 33  1  6  0  0  0
 12 13  1  0  0  0  0
 12 25  1  0  0  0  0
 12 34  1  6  0  0  0
 13 14  1  0  0  0  0
 13 26  1  0  0  0  0
 13 35  1  6  0  0  0
 14 15  1  0  0  0  0
 14 27  1  0  0  0  0
 14 36  1  1  0  0  0
 15 24  1  0  0  0  0
 15 28  1  0  0  0  0
 15 37  1  1  0  0  0
 16 38  1  0  0  0  0
 16 39  1  0  0  0  0
 16 40  1  0  0  0  0
 17 18  1  0  0  0  0
 17 41  1  0  0  0  0
 17 42  1  0  0  0  0
 18 20  1  0  0  0  0
 18 43  1  0  0  0  0
 18 44  1  0  0  0  0
 19 45  1  0  0  0  0
 20 46  1  0  0  0  0
 25 47  1  0  0  0  0
 26 48  1  0  0  0  0
 27 49  1  0  0  0  0
M  CHG  1  21  -1
M  END
>  <Chemgauss4 Score>
-4.57641172409058

>  <Number of Confs>
200

$$$$
