TRY-UNI-714-14
 OpenBabel03242009303D

 36 37  0  0  1  0  0  0  0  0999 V2000
   12.8895   -1.2357   22.2131 C   0  0  0  0  0  0  0  0  0  0  0  0
   13.3647   -0.4160   23.2368 C   0  0  0  0  0  0  0  0  0  0  0  0
   11.5289   -1.5319   22.1315 C   0  0  0  0  0  0  0  0  0  0  0  0
   12.4792    0.1074   24.1790 C   0  0  0  0  0  0  0  0  0  0  0  0
   10.6434   -1.0086   23.0738 C   0  0  0  0  0  0  0  0  0  0  0  0
    8.6755   -4.9889   28.4544 C   0  0  0  0  0  0  0  0  0  0  0  0
    8.8331   -2.7286   28.0747 C   0  0  0  0  0  0  0  0  0  0  0  0
   11.1186   -0.1890   24.0975 C   0  0  0  0  0  0  0  0  0  0  0  0
    9.3662   -4.2299   26.3089 C   0  0  0  0  0  0  0  0  0  0  0  0
    9.0786   -5.2886   27.1631 C   0  0  0  0  0  0  0  0  0  0  0  0
    9.2437   -2.9224   26.7656 C   0  0  0  0  0  0  0  0  0  0  0  0
   10.0034   -0.5612   26.3237 C   0  0  0  0  0  0  0  0  0  0  0  0
    9.8064   -4.4962   24.9035 C   0  0  0  0  0  0  0  0  0  0  0  0
   10.5839    1.7825   25.5616 C   0  0  0  0  0  0  0  0  0  0  0  0
   10.1713    0.3701   25.1048 C   0  0  1  0  0  0  0  0  0  0  0  0
    8.5449   -3.7317   28.9339 N   0  0  0  0  0  0  0  0  0  0  0  0
    9.1873   -6.6279   26.7477 N   0  0  0  0  0  0  0  0  0  0  0  0
    9.5233   -1.8101   25.9367 N   0  0  0  0  0  0  0  0  0  0  0  0
   10.2953   -0.2000   27.4601 O   0  0  0  0  0  0  0  0  0  0  0  0
   13.5789   -1.6420   21.4787 H   0  0  0  0  0  0  0  0  0  0  0  0
   14.4239   -0.1843   23.2998 H   0  0  0  0  0  0  0  0  0  0  0  0
   11.1584   -2.1692   21.3340 H   0  0  0  0  0  0  0  0  0  0  0  0
   12.8584    0.7449   24.9733 H   0  0  0  0  0  0  0  0  0  0  0  0
    9.5851   -1.2450   23.0024 H   0  0  0  0  0  0  0  0  0  0  0  0
    8.4370   -5.7724   29.1677 H   0  0  0  0  0  0  0  0  0  0  0  0
    8.7181   -1.7314   28.4890 H   0  0  0  0  0  0  0  0  0  0  0  0
    8.9370   -4.5471   24.2396 H   0  0  0  0  0  0  0  0  0  0  0  0
   10.4773   -3.7072   24.5453 H   0  0  0  0  0  0  0  0  0  0  0  0
   10.3568   -5.4416   24.8363 H   0  0  0  0  0  0  0  0  0  0  0  0
   11.5826    1.7826   26.0125 H   0  0  0  0  0  0  0  0  0  0  0  0
   10.6041    2.4900   24.7250 H   0  0  0  0  0  0  0  0  0  0  0  0
    9.8768    2.1661   26.3055 H   0  0  0  0  0  0  0  0  0  0  0  0
    9.1586    0.4808   24.6688 H   0  0  0  0  0  0  0  0  0  0  0  0
    9.0165   -7.3627   27.4069 H   0  0  0  0  0  0  0  0  0  0  0  0
    9.5250   -6.8310   25.8265 H   0  0  0  0  0  0  0  0  0  0  0  0
    9.3517   -1.9558   24.9442 H   0  0  0  0  0  0  0  0  0  0  0  0
  1  2  1  0  0  0  0
  1  3  2  0  0  0  0
  1 20  1  0  0  0  0
  2  4  2  0  0  0  0
  2 21  1  0  0  0  0
  3  5  1  0  0  0  0
  3 22  1  0  0  0  0
  4  8  1  0  0  0  0
  4 23  1  0  0  0  0
  5  8  2  0  0  0  0
  5 24  1  0  0  0  0
  6 10  2  0  0  0  0
  6 16  1  0  0  0  0
  6 25  1  0  0  0  0
  7 11  1  0  0  0  0
  7 16  2  0  0  0  0
  7 26  1  0  0  0  0
  8 15  1  0  0  0  0
  9 10  1  0  0  0  0
  9 11  2  0  0  0  0
  9 13  1  0  0  0  0
 10 17  1  0  0  0  0
 11 18  1  0  0  0  0
 12 15  1  0  0  0  0
 12 18  1  0  0  0  0
 12 19  2  0  0  0  0
 13 27  1  0  0  0  0
 13 28  1  0  0  0  0
 13 29  1  0  0  0  0
 14 15  1  0  0  0  0
 14 30  1  0  0  0  0
 14 31  1  0  0  0  0
 14 32  1  0  0  0  0
 15 33  1  6  0  0  0
 17 34  1  0  0  0  0
 17 35  1  0  0  0  0
 18 36  1  0  0  0  0
M  END
>  <Chemgauss4 Score>
-6.16091632843018

>  <Number of Confs>
15

$$$$
