DAN-LON-a5f-1
 OpenBabel03242009303D

 47 49  0  0  1  0  0  0  0  0999 V2000
   12.7330   -0.0590   22.8201 C   0  0  0  0  0  0  0  0  0  0  0  0
   12.9396   -1.3868   22.4463 C   0  0  0  0  0  0  0  0  0  0  0  0
   11.8870    0.2416   23.8876 C   0  0  0  0  0  0  0  0  0  0  0  0
    6.1498   -0.9040   20.2852 C   0  0  0  0  0  0  0  0  0  0  0  0
   12.3000   -2.4141   23.1400 C   0  0  0  0  0  0  0  0  0  0  0  0
   11.2474   -0.7857   24.5813 C   0  0  0  0  0  0  0  0  0  0  0  0
    6.5829   -2.0266   20.9906 C   0  0  0  0  0  0  0  0  0  0  0  0
    7.0307    0.1501   20.0428 C   0  0  0  0  0  0  0  0  0  0  0  0
    8.7778   -1.0412   21.2113 C   0  0  0  0  0  0  0  0  0  0  0  0
   11.4539   -2.1136   24.2075 C   0  0  0  0  0  0  0  0  0  0  0  0
    7.8969   -2.0953   21.4537 C   0  0  0  0  0  0  0  0  0  0  0  0
    8.3447    0.0815   20.5059 C   0  0  0  0  0  0  0  0  0  0  0  0
    9.0044   -4.0173   27.7028 C   0  0  0  0  0  0  0  0  0  0  0  0
    7.7708   -4.6467   25.6778 C   0  0  0  0  0  0  0  0  0  0  0  0
    7.8991   -4.6590   24.1589 C   0  0  0  0  0  0  0  0  0  0  0  0
    8.4569   -2.2749   24.4202 C   0  0  0  0  0  0  0  0  0  0  0  0
    9.4160   -2.7610   25.5223 C   0  0  2  0  0  0  0  0  0  0  0  0
   10.7642   -3.2201   24.9553 C   0  0  0  0  0  0  0  0  0  0  0  0
    8.3620   -3.3035   22.2139 C   0  0  0  0  0  0  0  0  0  0  0  0
   10.0307   -3.1340   28.3680 C   0  0  0  0  0  0  0  0  0  0  0  0
    8.7821   -3.8176   26.3370 N   0  0  0  0  0  0  0  0  0  0  0  0
    7.8563   -3.3157   23.5816 N   0  0  0  0  0  0  0  0  0  0  0  0
    8.3971   -4.8512   28.3809 O   0  0  0  0  0  0  0  0  0  0  0  0
    9.4307    1.3827   20.2075 Cl  0  0  0  0  0  0  0  0  0  0  0  0
    9.1774   -1.6964   28.9187 Cl  0  0  0  0  0  0  0  0  0  0  0  0
   13.2322    0.7408   22.2807 H   0  0  0  0  0  0  0  0  0  0  0  0
   13.5992   -1.6211   21.6159 H   0  0  0  0  0  0  0  0  0  0  0  0
   11.7268    1.2753   24.1795 H   0  0  0  0  0  0  0  0  0  0  0  0
    5.1265   -0.8508   19.9249 H   0  0  0  0  0  0  0  0  0  0  0  0
   12.4667   -3.4459   22.8417 H   0  0  0  0  0  0  0  0  0  0  0  0
   10.5899   -0.5420   25.4116 H   0  0  0  0  0  0  0  0  0  0  0  0
    5.8897   -2.8432   21.1750 H   0  0  0  0  0  0  0  0  0  0  0  0
    6.6792    1.0190   19.4919 H   0  0  0  0  0  0  0  0  0  0  0  0
    9.8014   -1.0998   21.5740 H   0  0  0  0  0  0  0  0  0  0  0  0
    6.7469   -4.3552   25.9599 H   0  0  0  0  0  0  0  0  0  0  0  0
    7.9083   -5.6688   26.0774 H   0  0  0  0  0  0  0  0  0  0  0  0
    8.8306   -5.1759   23.9047 H   0  0  0  0  0  0  0  0  0  0  0  0
    7.0747   -5.2376   23.7316 H   0  0  0  0  0  0  0  0  0  0  0  0
    7.6419   -1.6814   24.9206 H   0  0  0  0  0  0  0  0  0  0  0  0
    8.9634   -1.5081   23.7641 H   0  0  0  0  0  0  0  0  0  0  0  0
    9.6052   -1.9202   26.2110 H   0  0  0  0  0  0  0  0  0  0  0  0
   10.6058   -4.0776   24.2947 H   0  0  0  0  0  0  0  0  0  0  0  0
   11.3994   -3.5731   25.7730 H   0  0  0  0  0  0  0  0  0  0  0  0
    8.0256   -4.2225   21.7217 H   0  0  0  0  0  0  0  0  0  0  0  0
    9.4554   -3.3413   22.2610 H   0  0  0  0  0  0  0  0  0  0  0  0
   10.7859   -2.8620   27.6393 H   0  0  0  0  0  0  0  0  0  0  0  0
   10.4541   -3.6627   29.2144 H   0  0  0  0  0  0  0  0  0  0  0  0
  1  2  1  0  0  0  0
  1  3  2  0  0  0  0
  1 26  1  0  0  0  0
  2  5  2  0  0  0  0
  2 27  1  0  0  0  0
  3  6  1  0  0  0  0
  3 28  1  0  0  0  0
  4  7  2  0  0  0  0
  4  8  1  0  0  0  0
  4 29  1  0  0  0  0
  5 10  1  0  0  0  0
  5 30  1  0  0  0  0
  6 10  2  0  0  0  0
  6 31  1  0  0  0  0
  7 11  1  0  0  0  0
  7 32  1  0  0  0  0
  8 12  2  0  0  0  0
  8 33  1  0  0  0  0
  9 11  2  0  0  0  0
  9 12  1  0  0  0  0
  9 34  1  0  0  0  0
 10 18  1  0  0  0  0
 11 19  1  0  0  0  0
 12 24  1  0  0  0  0
 13 20  1  0  0  0  0
 13 21  1  0  0  0  0
 13 23  2  0  0  0  0
 14 15  1  0  0  0  0
 14 21  1  0  0  0  0
 14 35  1  0  0  0  0
 14 36  1  0  0  0  0
 15 22  1  0  0  0  0
 15 37  1  0  0  0  0
 15 38  1  0  0  0  0
 16 17  1  0  0  0  0
 16 22  1  0  0  0  0
 16 39  1  0  0  0  0
 16 40  1  0  0  0  0
 17 18  1  0  0  0  0
 17 21  1  0  0  0  0
 17 41  1  1  0  0  0
 18 42  1  0  0  0  0
 18 43  1  0  0  0  0
 19 22  1  0  0  0  0
 19 44  1  0  0  0  0
 19 45  1  0  0  0  0
 20 25  1  0  0  0  0
 20 46  1  0  0  0  0
 20 47  1  0  0  0  0
M  END
>  <Chemgauss4 Score>
-4.58169937133789

>  <Number of Confs>
200

$$$$
