PAT-UNK-b2d-3
 OpenBabel03242009303D

 49 51  0  0  0  0  0  0  0  0999 V2000
    9.6821   -5.9261   26.1597 C   0  0  0  0  0  0  0  0  0  0  0  0
   10.2899   -4.6743   26.2547 C   0  0  0  0  0  0  0  0  0  0  0  0
    8.3730   -6.0320   25.6900 C   0  0  0  0  0  0  0  0  0  0  0  0
    8.2793   -3.6341   25.4104 C   0  0  0  0  0  0  0  0  0  0  0  0
    9.5885   -3.5283   25.8801 C   0  0  0  0  0  0  0  0  0  0  0  0
    7.6716   -4.8860   25.3153 C   0  0  0  0  0  0  0  0  0  0  0  0
   13.6105   -1.0991   21.7186 C   0  0  0  0  0  0  0  0  0  0  0  0
    4.8831   -4.0575   22.5718 C   0  0  0  0  0  0  0  0  0  0  0  0
    5.2244   -3.1318   23.7418 C   0  0  0  0  0  0  0  0  0  0  0  0
    5.8795   -5.2141   22.4644 C   0  0  0  0  0  0  0  0  0  0  0  0
    5.3789   -3.9259   25.0387 C   0  0  0  0  0  0  0  0  0  0  0  0
    6.0230   -5.9573   23.7962 C   0  0  0  0  0  0  0  0  0  0  0  0
   12.0838   -0.0599   23.4637 C   0  0  0  0  0  0  0  0  0  0  0  0
   11.5370   -2.2336   22.4437 C   0  0  0  0  0  0  0  0  0  0  0  0
   11.6746   -0.6257   24.8249 C   0  0  0  0  0  0  0  0  0  0  0  0
   11.1445   -2.7593   23.8240 C   0  0  0  0  0  0  0  0  0  0  0  0
   14.4656    0.1412   21.7863 C   0  0  0  0  0  0  0  0  0  0  0  0
   10.2428   -2.1809   25.9832 C   0  0  0  0  0  0  0  0  0  0  0  0
    6.3663   -4.9918   24.8465 N   0  0  0  0  0  0  0  0  0  0  0  0
   12.4900   -1.1297   22.5475 N   0  0  0  0  0  0  0  0  0  0  0  0
   10.6485   -1.6681   24.6752 N   0  0  0  0  0  0  0  0  0  0  0  0
   13.9319   -2.0132   20.9552 O   0  0  0  0  0  0  0  0  0  0  0  0
   10.2284   -6.8186   26.4514 H   0  0  0  0  0  0  0  0  0  0  0  0
   11.3104   -4.6011   26.6219 H   0  0  0  0  0  0  0  0  0  0  0  0
    7.9091   -7.0126   25.6197 H   0  0  0  0  0  0  0  0  0  0  0  0
    7.7339   -2.7396   25.1184 H   0  0  0  0  0  0  0  0  0  0  0  0
    3.8655   -4.4567   22.7016 H   0  0  0  0  0  0  0  0  0  0  0  0
    4.8788   -3.4835   21.6339 H   0  0  0  0  0  0  0  0  0  0  0  0
    6.1526   -2.5959   23.5262 H   0  0  0  0  0  0  0  0  0  0  0  0
    4.4361   -2.3853   23.8589 H   0  0  0  0  0  0  0  0  0  0  0  0
    5.5471   -5.9127   21.6895 H   0  0  0  0  0  0  0  0  0  0  0  0
    6.8574   -4.8300   22.1517 H   0  0  0  0  0  0  0  0  0  0  0  0
    5.6935   -3.2440   25.8365 H   0  0  0  0  0  0  0  0  0  0  0  0
    4.4143   -4.3592   25.3281 H   0  0  0  0  0  0  0  0  0  0  0  0
    5.0862   -6.4638   24.0435 H   0  0  0  0  0  0  0  0  0  0  0  0
    6.8043   -6.7148   23.6943 H   0  0  0  0  0  0  0  0  0  0  0  0
   11.2386    0.4589   22.9946 H   0  0  0  0  0  0  0  0  0  0  0  0
   12.8772    0.6766   23.6048 H   0  0  0  0  0  0  0  0  0  0  0  0
   11.9523   -3.0487   21.8421 H   0  0  0  0  0  0  0  0  0  0  0  0
   10.6566   -1.8518   21.9121 H   0  0  0  0  0  0  0  0  0  0  0  0
   12.5609   -1.0174   25.3416 H   0  0  0  0  0  0  0  0  0  0  0  0
   11.2792    0.1971   25.4327 H   0  0  0  0  0  0  0  0  0  0  0  0
   10.3581   -3.5123   23.6926 H   0  0  0  0  0  0  0  0  0  0  0  0
   12.0045   -3.2615   24.2868 H   0  0  0  0  0  0  0  0  0  0  0  0
   15.2285    0.0052   22.5457 H   0  0  0  0  0  0  0  0  0  0  0  0
   13.8394    0.9913   22.0376 H   0  0  0  0  0  0  0  0  0  0  0  0
   14.9298    0.3055   20.8192 H   0  0  0  0  0  0  0  0  0  0  0  0
    9.5590   -1.4531   26.4335 H   0  0  0  0  0  0  0  0  0  0  0  0
   11.1347   -2.2246   26.6170 H   0  0  0  0  0  0  0  0  0  0  0  0
  1  2  2  0  0  0  0
  1  3  1  0  0  0  0
  1 23  1  0  0  0  0
  2  5  1  0  0  0  0
  2 24  1  0  0  0  0
  3  6  2  0  0  0  0
  3 25  1  0  0  0  0
  4  5  2  0  0  0  0
  4  6  1  0  0  0  0
  4 26  1  0  0  0  0
  5 18  1  0  0  0  0
  6 19  1  0  0  0  0
  7 17  1  0  0  0  0
  7 20  1  0  0  0  0
  7 22  2  0  0  0  0
  8  9  1  0  0  0  0
  8 10  1  0  0  0  0
  8 27  1  0  0  0  0
  8 28  1  0  0  0  0
  9 11  1  0  0  0  0
  9 29  1  0  0  0  0
  9 30  1  0  0  0  0
 10 12  1  0  0  0  0
 10 31  1  0  0  0  0
 10 32  1  0  0  0  0
 11 19  1  0  0  0  0
 11 33  1  0  0  0  0
 11 34  1  0  0  0  0
 12 19  1  0  0  0  0
 12 35  1  0  0  0  0
 12 36  1  0  0  0  0
 13 15  1  0  0  0  0
 13 20  1  0  0  0  0
 13 37  1  0  0  0  0
 13 38  1  0  0  0  0
 14 16  1  0  0  0  0
 14 20  1  0  0  0  0
 14 39  1  0  0  0  0
 14 40  1  0  0  0  0
 15 21  1  0  0  0  0
 15 41  1  0  0  0  0
 15 42  1  0  0  0  0
 16 21  1  0  0  0  0
 16 43  1  0  0  0  0
 16 44  1  0  0  0  0
 17 45  1  0  0  0  0
 17 46  1  0  0  0  0
 17 47  1  0  0  0  0
 18 21  1  0  0  0  0
 18 48  1  0  0  0  0
 18 49  1  0  0  0  0
M  END
>  <Chemgauss4 Score>
-4.98565578460693

>  <Number of Confs>
194

$$$$
