CHR-SOS-709-19
 OpenBabel03242009303D

 41 43  0  0  0  0  0  0  0  0999 V2000
    6.0093    1.4457   18.3126 C   0  0  0  0  0  0  0  0  0  0  0  0
    6.9689    1.0974   19.2566 C   0  0  0  0  0  0  0  0  0  0  0  0
    8.4202   -4.2642   24.6163 C   0  0  0  0  0  0  0  0  0  0  0  0
   10.4746   -4.2660   25.8878 C   0  0  0  0  0  0  0  0  0  0  0  0
    7.7017   -4.5516   25.7768 C   0  0  0  0  0  0  0  0  0  0  0  0
    9.7561   -4.5534   27.0483 C   0  0  0  0  0  0  0  0  0  0  0  0
    9.7897   -1.8528   22.4090 C   0  0  0  0  0  0  0  0  0  0  0  0
   11.1193    0.1585   22.5624 C   0  0  0  0  0  0  0  0  0  0  0  0
   11.8439   -1.8568   23.6806 C   0  0  0  0  0  0  0  0  0  0  0  0
    5.4406    0.4302   17.5608 C   0  0  0  0  0  0  0  0  0  0  0  0
    6.6976   -1.1771   18.6166 C   0  0  0  0  0  0  0  0  0  0  0  0
    9.9913   -0.5106   22.0874 C   0  0  0  0  0  0  0  0  0  0  0  0
    7.3253   -0.2369   19.4177 C   0  0  0  0  0  0  0  0  0  0  0  0
    9.8066   -4.1215   24.6718 C   0  0  0  0  0  0  0  0  0  0  0  0
   10.7160   -2.5259   23.2057 C   0  0  0  0  0  0  0  0  0  0  0  0
    8.3696   -4.6962   26.9928 C   0  0  0  0  0  0  0  0  0  0  0  0
   12.0456   -0.5146   23.3590 C   0  0  0  0  0  0  0  0  0  0  0  0
    9.0266    0.1908   21.2552 C   0  0  0  0  0  0  0  0  0  0  0  0
    5.7611   -0.8768   17.6889 N   0  0  0  0  0  0  0  0  0  0  0  0
    7.1211   -3.4829   29.0112 N   0  0  0  0  0  0  0  0  0  0  0  0
    8.3005   -0.6229   20.3717 N   0  0  0  0  0  0  0  0  0  0  0  0
    8.8927    1.4212   21.3093 O   0  0  0  0  0  0  0  0  0  0  0  0
    6.2242   -5.7067   28.0648 O   0  0  0  0  0  0  0  0  0  0  0  0
    8.3647   -5.7064   29.3936 O   0  0  0  0  0  0  0  0  0  0  0  0
   10.5200   -3.8357   23.5198 O   0  0  0  0  0  0  0  0  0  0  0  0
    7.4703   -5.0569   28.4456 S   0  0  0  0  0  0  0  0  0  0  0  0
   13.4366    0.3107   23.9466 Cl  0  0  0  0  0  0  0  0  0  0  0  0
    5.7160    2.4795   18.1699 H   0  0  0  0  0  0  0  0  0  0  0  0
    7.4321    1.8729   19.8609 H   0  0  0  0  0  0  0  0  0  0  0  0
    7.8943   -4.1520   23.6721 H   0  0  0  0  0  0  0  0  0  0  0  0
   11.5544   -4.1560   25.9372 H   0  0  0  0  0  0  0  0  0  0  0  0
    6.6219   -4.6608   25.7222 H   0  0  0  0  0  0  0  0  0  0  0  0
   10.2863   -4.6643   27.9903 H   0  0  0  0  0  0  0  0  0  0  0  0
    8.9111   -2.3781   22.0417 H   0  0  0  0  0  0  0  0  0  0  0  0
   11.2742    1.2051   22.3093 H   0  0  0  0  0  0  0  0  0  0  0  0
   12.5612   -2.3893   24.3010 H   0  0  0  0  0  0  0  0  0  0  0  0
    4.6880    0.6499   16.8107 H   0  0  0  0  0  0  0  0  0  0  0  0
    6.9333   -2.2341   18.6960 H   0  0  0  0  0  0  0  0  0  0  0  0
    6.1515   -3.1502   28.9422 H   0  0  0  0  0  0  0  0  0  0  0  0
    7.6154   -3.1508   29.8482 H   0  0  0  0  0  0  0  0  0  0  0  0
    8.4998   -1.6189   20.4225 H   0  0  0  0  0  0  0  0  0  0  0  0
  1  2  2  0  0  0  0
  1 10  1  0  0  0  0
  1 28  1  0  0  0  0
  2 13  1  0  0  0  0
  2 29  1  0  0  0  0
  3  5  2  0  0  0  0
  3 14  1  0  0  0  0
  3 30  1  0  0  0  0
  4  6  1  0  0  0  0
  4 14  2  0  0  0  0
  4 31  1  0  0  0  0
  5 16  1  0  0  0  0
  5 32  1  0  0  0  0
  6 16  2  0  0  0  0
  6 33  1  0  0  0  0
  7 12  1  0  0  0  0
  7 15  2  0  0  0  0
  7 34  1  0  0  0  0
  8 12  2  0  0  0  0
  8 17  1  0  0  0  0
  8 35  1  0  0  0  0
  9 15  1  0  0  0  0
  9 17  2  0  0  0  0
  9 36  1  0  0  0  0
 10 19  2  0  0  0  0
 10 37  1  0  0  0  0
 11 13  2  0  0  0  0
 11 19  1  0  0  0  0
 11 38  1  0  0  0  0
 12 18  1  0  0  0  0
 13 21  1  0  0  0  0
 14 25  1  0  0  0  0
 15 25  1  0  0  0  0
 16 26  1  0  0  0  0
 17 27  1  0  0  0  0
 18 21  1  0  0  0  0
 18 22  2  0  0  0  0
 20 26  1  0  0  0  0
 20 39  1  0  0  0  0
 20 40  1  0  0  0  0
 21 41  1  0  0  0  0
 23 26  2  0  0  0  0
 24 26  2  0  0  0  0
M  END
>  <Chemgauss4 Score>
-6.63887882232666

>  <Number of Confs>
200

$$$$
