DAR-DIA-23a-4
 OpenBabel03242009303D

 29 30  0  0  0  0  0  0  0  0999 V2000
    5.6337   -4.1050   25.4814 C   0  0  0  0  0  0  0  0  0  0  0  0
    9.0176   -4.9355   26.7910 C   0  0  0  0  0  0  0  0  0  0  0  0
   13.9671   -0.0722   23.1311 C   0  0  0  0  0  0  0  0  0  0  0  0
    7.6297   -4.8560   26.6774 C   0  0  0  0  0  0  0  0  0  0  0  0
   13.1615   -0.9282   22.3884 C   0  0  0  0  0  0  0  0  0  0  0  0
    9.8315   -4.3442   25.8248 C   0  0  0  0  0  0  0  0  0  0  0  0
    7.8695   -3.5942   24.6311 C   0  0  0  0  0  0  0  0  0  0  0  0
   13.3610    0.7105   24.1005 C   0  0  0  0  0  0  0  0  0  0  0  0
   11.2850   -0.1517   23.6262 C   0  0  0  0  0  0  0  0  0  0  0  0
    7.0556   -4.1854   25.5974 C   0  0  0  0  0  0  0  0  0  0  0  0
   11.7938   -0.9747   22.6344 C   0  0  0  0  0  0  0  0  0  0  0  0
    9.2575   -3.6736   24.7448 C   0  0  0  0  0  0  0  0  0  0  0  0
    9.6827   -2.3700   22.6318 C   0  0  0  0  0  0  0  0  0  0  0  0
   10.8946   -1.8918   21.8475 C   0  0  0  0  0  0  0  0  0  0  0  0
    4.4788   -4.0396   25.3872 N   0  0  0  0  0  0  0  0  0  0  0  0
   12.0360    0.6928   24.3681 N   0  0  0  0  0  0  0  0  0  0  0  0
   10.0718   -3.0813   23.7792 N   0  0  0  0  0  0  0  0  0  0  0  0
    8.5339   -2.1406   22.2676 O   0  0  0  0  0  0  0  0  0  0  0  0
    9.4647   -5.4569   27.6325 H   0  0  0  0  0  0  0  0  0  0  0  0
   15.0357   -0.0195   22.9568 H   0  0  0  0  0  0  0  0  0  0  0  0
    7.0089   -5.3227   27.4384 H   0  0  0  0  0  0  0  0  0  0  0  0
   13.6076   -1.5549   21.6210 H   0  0  0  0  0  0  0  0  0  0  0  0
   10.9120   -4.4124   25.9237 H   0  0  0  0  0  0  0  0  0  0  0  0
    7.4250   -3.0706   23.7868 H   0  0  0  0  0  0  0  0  0  0  0  0
   13.9457    1.3948   24.7064 H   0  0  0  0  0  0  0  0  0  0  0  0
   10.2255   -0.1447   23.8629 H   0  0  0  0  0  0  0  0  0  0  0  0
   10.5470   -1.3788   20.9417 H   0  0  0  0  0  0  0  0  0  0  0  0
   11.4657   -2.7669   21.5122 H   0  0  0  0  0  0  0  0  0  0  0  0
   11.0834   -3.1773   23.9257 H   0  0  0  0  0  0  0  0  0  0  0  0
  1 10  1  0  0  0  0
  1 15  3  0  0  0  0
  2  4  2  0  0  0  0
  2  6  1  0  0  0  0
  2 19  1  0  0  0  0
  3  5  2  0  0  0  0
  3  8  1  0  0  0  0
  3 20  1  0  0  0  0
  4 10  1  0  0  0  0
  4 21  1  0  0  0  0
  5 11  1  0  0  0  0
  5 22  1  0  0  0  0
  6 12  2  0  0  0  0
  6 23  1  0  0  0  0
  7 10  2  0  0  0  0
  7 12  1  0  0  0  0
  7 24  1  0  0  0  0
  8 16  2  0  0  0  0
  8 25  1  0  0  0  0
  9 11  2  0  0  0  0
  9 16  1  0  0  0  0
  9 26  1  0  0  0  0
 11 14  1  0  0  0  0
 12 17  1  0  0  0  0
 13 14  1  0  0  0  0
 13 17  1  0  0  0  0
 13 18  2  0  0  0  0
 14 27  1  0  0  0  0
 14 28  1  0  0  0  0
 17 29  1  0  0  0  0
M  END
>  <Chemgauss4 Score>
-4.94497394561768

>  <Number of Confs>
40

$$$$
