CHR-SOS-70e-9
 OpenBabel03242009303D

 44 46  0  0  0  0  0  0  0  0999 V2000
    6.2294   -4.8410   23.5520 C   0  0  0  0  0  0  0  0  0  0  0  0
   12.0857   -1.0760   22.9178 C   0  0  0  0  0  0  0  0  0  0  0  0
   11.4797   -2.2141   23.4382 C   0  0  0  0  0  0  0  0  0  0  0  0
    6.3438   -4.9244   24.9397 C   0  0  0  0  0  0  0  0  0  0  0  0
    6.4927   -3.6354   22.9017 C   0  0  0  0  0  0  0  0  0  0  0  0
    6.9846   -2.5965   25.0268 C   0  0  0  0  0  0  0  0  0  0  0  0
   12.0387    0.0859   23.6711 C   0  0  0  0  0  0  0  0  0  0  0  0
   10.8624   -0.9461   25.3532 C   0  0  0  0  0  0  0  0  0  0  0  0
   10.8541   -2.1563   24.6786 C   0  0  0  0  0  0  0  0  0  0  0  0
    6.7213   -3.8022   25.6770 C   0  0  0  0  0  0  0  0  0  0  0  0
    6.8703   -2.5131   23.6391 C   0  0  0  0  0  0  0  0  0  0  0  0
    9.5672   -3.3930   26.4552 C   0  0  0  0  0  0  0  0  0  0  0  0
    7.9895   -6.3050   29.1022 C   0  0  0  0  0  0  0  0  0  0  0  0
    7.2110   -6.2610   27.7756 C   0  0  0  0  0  0  0  0  0  0  0  0
    8.0464   -4.7678   29.0625 C   0  0  0  0  0  0  0  0  0  0  0  0
    7.7905   -4.8396   27.5308 C   0  0  0  0  0  0  0  0  0  0  0  0
    9.0425   -4.8037   26.6631 C   0  0  0  0  0  0  0  0  0  0  0  0
   11.4405    0.1805   24.8797 N   0  0  0  0  0  0  0  0  0  0  0  0
    5.6529   -0.2845   22.8292 N   0  0  0  0  0  0  0  0  0  0  0  0
   10.2286   -3.2977   25.2341 N   0  0  0  0  0  0  0  0  0  0  0  0
    9.3998   -2.5043   27.2838 O   0  0  0  0  0  0  0  0  0  0  0  0
    8.0905   -0.2145   23.6652 O   0  0  0  0  0  0  0  0  0  0  0  0
    7.5782   -1.2957   21.4479 O   0  0  0  0  0  0  0  0  0  0  0  0
    6.8319   -3.8832   27.0309 O   0  0  0  0  0  0  0  0  0  0  0  0
    7.2023   -1.0046   22.8243 S   0  0  0  0  0  0  0  0  0  0  0  0
    5.9351   -5.7146   22.9781 H   0  0  0  0  0  0  0  0  0  0  0  0
   12.5792   -1.0979   21.9528 H   0  0  0  0  0  0  0  0  0  0  0  0
   11.5009   -3.1399   22.8694 H   0  0  0  0  0  0  0  0  0  0  0  0
    6.1371   -5.8662   25.4404 H   0  0  0  0  0  0  0  0  0  0  0  0
    6.4018   -3.5816   21.8203 H   0  0  0  0  0  0  0  0  0  0  0  0
    7.2783   -1.7245   25.6061 H   0  0  0  0  0  0  0  0  0  0  0  0
   12.4957    1.0009   23.3090 H   0  0  0  0  0  0  0  0  0  0  0  0
   10.3906   -0.8385   26.3254 H   0  0  0  0  0  0  0  0  0  0  0  0
    7.4537   -6.7369   29.9513 H   0  0  0  0  0  0  0  0  0  0  0  0
    8.9714   -6.7847   29.0219 H   0  0  0  0  0  0  0  0  0  0  0  0
    7.4878   -7.0305   27.0493 H   0  0  0  0  0  0  0  0  0  0  0  0
    6.1223   -6.2790   27.9048 H   0  0  0  0  0  0  0  0  0  0  0  0
    7.2385   -4.2833   29.6236 H   0  0  0  0  0  0  0  0  0  0  0  0
    8.9987   -4.3297   29.3747 H   0  0  0  0  0  0  0  0  0  0  0  0
    8.8160   -5.2418   25.6862 H   0  0  0  0  0  0  0  0  0  0  0  0
    9.8257   -5.4040   27.1359 H   0  0  0  0  0  0  0  0  0  0  0  0
    5.4964    0.5179   23.4513 H   0  0  0  0  0  0  0  0  0  0  0  0
    5.1473   -0.2230   21.9371 H   0  0  0  0  0  0  0  0  0  0  0  0
   10.2749   -4.1398   24.6640 H   0  0  0  0  0  0  0  0  0  0  0  0
  1  4  1  0  0  0  0
  1  5  2  0  0  0  0
  1 26  1  0  0  0  0
  2  3  2  0  0  0  0
  2  7  1  0  0  0  0
  2 27  1  0  0  0  0
  3  9  1  0  0  0  0
  3 28  1  0  0  0  0
  4 10  2  0  0  0  0
  4 29  1  0  0  0  0
  5 11  1  0  0  0  0
  5 30  1  0  0  0  0
  6 10  1  0  0  0  0
  6 11  2  0  0  0  0
  6 31  1  0  0  0  0
  7 18  2  0  0  0  0
  7 32  1  0  0  0  0
  8  9  2  0  0  0  0
  8 18  1  0  0  0  0
  8 33  1  0  0  0  0
  9 20  1  0  0  0  0
 10 24  1  0  0  0  0
 11 25  1  0  0  0  0
 12 17  1  0  0  0  0
 12 20  1  0  0  0  0
 12 21  2  0  0  0  0
 13 14  1  0  0  0  0
 13 15  1  0  0  0  0
 13 34  1  0  0  0  0
 13 35  1  0  0  0  0
 14 16  1  0  0  0  0
 14 36  1  0  0  0  0
 14 37  1  0  0  0  0
 15 16  1  0  0  0  0
 15 38  1  0  0  0  0
 15 39  1  0  0  0  0
 16 17  1  0  0  0  0
 16 24  1  0  0  0  0
 17 40  1  0  0  0  0
 17 41  1  0  0  0  0
 19 25  1  0  0  0  0
 19 42  1  0  0  0  0
 19 43  1  0  0  0  0
 20 44  1  0  0  0  0
 22 25  2  0  0  0  0
 23 25  2  0  0  0  0
M  END
>  <Chemgauss4 Score>
-5.35155630111694

>  <Number of Confs>
200

$$$$
