DUN-NEW-f8c-25
 OpenBabel03242009303D

 49 50  0  0  1  0  0  0  0  0999 V2000
   11.5736   -0.6999   23.2143 C   0  0  0  0  0  0  0  0  0  0  0  0
   11.8864   -1.9096   22.5943 C   0  0  0  0  0  0  0  0  0  0  0  0
   10.9689   -0.6963   24.4713 C   0  0  0  0  0  0  0  0  0  0  0  0
   11.5944   -3.1157   23.2312 C   0  0  0  0  0  0  0  0  0  0  0  0
   10.6769   -1.9024   25.1082 C   0  0  0  0  0  0  0  0  0  0  0  0
   10.9896   -3.1121   24.4882 C   0  0  0  0  0  0  0  0  0  0  0  0
    6.1109    1.2009   21.8204 C   0  0  0  0  0  0  0  0  0  0  0  0
    7.1394   -1.1592   24.3794 C   0  0  0  0  0  0  0  0  0  0  0  0
    7.1478   -2.2152   22.0915 C   0  0  0  0  0  0  0  0  0  0  0  0
    7.4497    0.1891   23.7314 C   0  0  0  0  0  0  0  0  0  0  0  0
    7.4599   -0.8466   21.4908 C   0  0  0  0  0  0  0  0  0  0  0  0
    7.6738   -2.3230   23.5308 C   0  0  0  0  0  0  0  0  0  0  0  0
    6.4239   -5.4975   26.6085 C   0  0  0  0  0  0  0  0  0  0  0  0
   10.6733   -4.4166   25.1777 C   0  0  0  0  0  0  0  0  0  0  0  0
    5.7302    1.0493   20.3692 C   0  0  0  0  0  0  0  0  0  0  0  0
    7.2935   -3.6660   24.1493 C   0  0  0  0  0  0  0  0  0  0  0  0
    9.2818   -4.9464   24.8401 C   0  0  0  0  0  0  0  0  0  0  0  0
    6.9578    0.2275   22.3492 N   0  0  0  0  0  0  0  0  0  0  0  0
    8.1877   -3.9780   25.2131 N   0  0  0  0  0  0  0  0  0  0  0  0
    5.6697    2.1576   22.4623 O   0  0  0  0  0  0  0  0  0  0  0  0
    8.6479   -4.6434   27.6789 O   0  0  0  0  0  0  0  0  0  0  0  0
    6.8036   -2.9907   27.2366 O   0  0  0  0  0  0  0  0  0  0  0  0
    7.5710   -4.1555   26.8380 S   0  0  0  0  0  0  0  0  0  0  0  0
    4.6418    2.3802   19.9922 Cl  0  0  0  0  0  0  0  0  0  0  0  0
   11.8023    0.2392   22.7188 H   0  0  0  0  0  0  0  0  0  0  0  0
   12.3582   -1.9126   21.6160 H   0  0  0  0  0  0  0  0  0  0  0  0
   10.7262    0.2453   24.9548 H   0  0  0  0  0  0  0  0  0  0  0  0
   11.8415   -4.0534   22.7405 H   0  0  0  0  0  0  0  0  0  0  0  0
   10.2056   -1.8899   26.0874 H   0  0  0  0  0  0  0  0  0  0  0  0
    7.5887   -1.1920   25.3791 H   0  0  0  0  0  0  0  0  0  0  0  0
    6.0543   -1.2559   24.5137 H   0  0  0  0  0  0  0  0  0  0  0  0
    6.0630   -2.3816   22.0721 H   0  0  0  0  0  0  0  0  0  0  0  0
    7.6015   -2.9962   21.4697 H   0  0  0  0  0  0  0  0  0  0  0  0
    7.0249    0.9889   24.3403 H   0  0  0  0  0  0  0  0  0  0  0  0
    8.5333    0.3532   23.6932 H   0  0  0  0  0  0  0  0  0  0  0  0
    8.5431   -0.7082   21.3925 H   0  0  0  0  0  0  0  0  0  0  0  0
    7.0296   -0.7779   20.4868 H   0  0  0  0  0  0  0  0  0  0  0  0
    8.7699   -2.2592   23.5054 H   0  0  0  0  0  0  0  0  0  0  0  0
    5.9551   -5.7178   27.5689 H   0  0  0  0  0  0  0  0  0  0  0  0
    5.6739   -5.1884   25.8789 H   0  0  0  0  0  0  0  0  0  0  0  0
    6.9769   -6.3648   26.2449 H   0  0  0  0  0  0  0  0  0  0  0  0
   10.7503   -4.2648   26.2618 H   0  0  0  0  0  0  0  0  0  0  0  0
   11.4344   -5.1651   24.9229 H   0  0  0  0  0  0  0  0  0  0  0  0
    5.2197    0.1022   20.2368 H   0  0  0  0  0  0  0  0  0  0  0  0
    6.6256    1.1171   19.7621 H   0  0  0  0  0  0  0  0  0  0  0  0
    6.2739   -3.5740   24.5202 H   0  0  0  0  0  0  0  0  0  0  0  0
    7.3589   -4.4148   23.3615 H   0  0  0  0  0  0  0  0  0  0  0  0
    9.1988   -5.1163   23.7620 H   0  0  0  0  0  0  0  0  0  0  0  0
    9.0744   -5.8920   25.3517 H   0  0  0  0  0  0  0  0  0  0  0  0
  1  2  1  0  0  0  0
  1  3  2  0  0  0  0
  1 25  1  0  0  0  0
  2  4  2  0  0  0  0
  2 26  1  0  0  0  0
  3  5  1  0  0  0  0
  3 27  1  0  0  0  0
  4  6  1  0  0  0  0
  4 28  1  0  0  0  0
  5  6  2  0  0  0  0
  5 29  1  0  0  0  0
  6 14  1  0  0  0  0
  7 15  1  0  0  0  0
  7 18  1  0  0  0  0
  7 20  2  0  0  0  0
  8 10  1  0  0  0  0
  8 12  1  0  0  0  0
  8 30  1  0  0  0  0
  8 31  1  0  0  0  0
  9 11  1  0  0  0  0
  9 12  1  0  0  0  0
  9 32  1  0  0  0  0
  9 33  1  0  0  0  0
 10 18  1  0  0  0  0
 10 34  1  0  0  0  0
 10 35  1  0  0  0  0
 11 18  1  0  0  0  0
 11 36  1  0  0  0  0
 11 37  1  0  0  0  0
 12 16  1  0  0  0  0
 12 38  1  0  0  0  0
 13 23  1  0  0  0  0
 13 39  1  0  0  0  0
 13 40  1  0  0  0  0
 13 41  1  0  0  0  0
 14 17  1  0  0  0  0
 14 42  1  0  0  0  0
 14 43  1  0  0  0  0
 15 24  1  0  0  0  0
 15 44  1  0  0  0  0
 15 45  1  0  0  0  0
 16 19  1  0  0  0  0
 16 46  1  0  0  0  0
 16 47  1  0  0  0  0
 17 19  1  0  0  0  0
 17 48  1  0  0  0  0
 17 49  1  0  0  0  0
 19 23  1  0  0  0  0
 21 23  2  0  0  0  0
 22 23  2  0  0  0  0
M  END
>  <Chemgauss4 Score>
-4.83283424377441

>  <Number of Confs>
200

$$$$
