HEI-REL-0c9-1
 OpenBabel03242009303D

 51 53  0  0  1  0  0  0  0  0999 V2000
   11.0990   -4.1728   24.7287 C   0  0  0  0  0  0  0  0  0  0  0  0
   10.2003   -4.7424   25.6229 C   0  0  0  0  0  0  0  0  0  0  0  0
    8.8559   -2.7401   25.5093 C   0  0  0  0  0  0  0  0  0  0  0  0
   10.8865   -2.8766   24.2257 C   0  0  0  0  0  0  0  0  0  0  0  0
    9.7411   -2.1324   24.5960 C   0  0  0  0  0  0  0  0  0  0  0  0
    9.0800   -4.0243   26.0159 C   0  0  0  0  0  0  0  0  0  0  0  0
    5.2423    1.5316   19.3515 C   0  0  0  0  0  0  0  0  0  0  0  0
   11.8925   -2.3221   23.2488 C   0  0  0  0  0  0  0  0  0  0  0  0
   11.8075   -0.8050   23.1697 C   0  0  0  0  0  0  0  0  0  0  0  0
    6.9306    1.7592   21.2367 C   0  0  0  0  0  0  0  0  0  0  0  0
    6.1988   -0.4603   20.4604 C   0  0  0  0  0  0  0  0  0  0  0  0
    8.3672    1.2365   21.2927 C   0  0  0  0  0  0  0  0  0  0  0  0
    7.6489   -0.9383   20.5253 C   0  0  0  0  0  0  0  0  0  0  0  0
   10.3645   -0.3252   23.0060 C   0  0  1  0  0  0  0  0  0  0  0  0
    5.0487    0.7534   18.0745 C   0  0  0  0  0  0  0  0  0  0  0  0
    8.5749    0.0578   24.7197 C   0  0  0  0  0  0  0  0  0  0  0  0
    9.7695   -0.6923   21.6444 C   0  0  0  0  0  0  0  0  0  0  0  0
    9.5186   -0.8538   24.0844 N   0  0  0  0  0  0  0  0  0  0  0  0
    6.1252    0.9893   20.2842 N   0  0  0  0  0  0  0  0  0  0  0  0
    8.3920   -0.2085   21.5629 N   0  0  0  0  0  0  0  0  0  0  0  0
    8.6678   -6.2503   27.4229 N   0  0  0  0  0  0  0  0  0  0  0  0
    4.6245    2.5867   19.5153 O   0  0  0  0  0  0  0  0  0  0  0  0
    7.9798   -3.9549   28.3734 O   0  0  0  0  0  0  0  0  0  0  0  0
    6.6783   -4.9335   26.4509 O   0  0  0  0  0  0  0  0  0  0  0  0
    7.9442   -4.7285   27.1404 S   0  0  0  0  0  0  0  0  0  0  0  0
   11.9741   -4.7414   24.4231 H   0  0  0  0  0  0  0  0  0  0  0  0
   10.3837   -5.7428   26.0044 H   0  0  0  0  0  0  0  0  0  0  0  0
    7.9608   -2.2174   25.8403 H   0  0  0  0  0  0  0  0  0  0  0  0
   12.9080   -2.6017   23.5541 H   0  0  0  0  0  0  0  0  0  0  0  0
   11.7102   -2.7674   22.2638 H   0  0  0  0  0  0  0  0  0  0  0  0
   12.2242   -0.3680   24.0874 H   0  0  0  0  0  0  0  0  0  0  0  0
   12.4302   -0.4423   22.3433 H   0  0  0  0  0  0  0  0  0  0  0  0
    6.4481    1.6597   22.2170 H   0  0  0  0  0  0  0  0  0  0  0  0
    6.9447    2.8225   20.9898 H   0  0  0  0  0  0  0  0  0  0  0  0
    5.6755   -0.9764   19.6489 H   0  0  0  0  0  0  0  0  0  0  0  0
    5.6721   -0.6999   21.3925 H   0  0  0  0  0  0  0  0  0  0  0  0
    8.8752    1.4644   20.3515 H   0  0  0  0  0  0  0  0  0  0  0  0
    8.8894    1.7650   22.0937 H   0  0  0  0  0  0  0  0  0  0  0  0
    7.6443   -2.0046   20.7631 H   0  0  0  0  0  0  0  0  0  0  0  0
    8.1209   -0.8129   19.5468 H   0  0  0  0  0  0  0  0  0  0  0  0
   10.3853    0.7706   23.0717 H   0  0  0  0  0  0  0  0  0  0  0  0
    4.2297    0.0540   18.2059 H   0  0  0  0  0  0  0  0  0  0  0  0
    5.9626    0.2152   17.8442 H   0  0  0  0  0  0  0  0  0  0  0  0
    4.8212    1.4440   17.2688 H   0  0  0  0  0  0  0  0  0  0  0  0
    8.5489    1.0061   24.1630 H   0  0  0  0  0  0  0  0  0  0  0  0
    7.5722   -0.3945   24.7203 H   0  0  0  0  0  0  0  0  0  0  0  0
    8.8913    0.2494   25.7557 H   0  0  0  0  0  0  0  0  0  0  0  0
   10.3901   -0.2191   20.8867 H   0  0  0  0  0  0  0  0  0  0  0  0
    9.8033   -1.7764   21.5630 H   0  0  0  0  0  0  0  0  0  0  0  0
    9.1027   -6.4143   28.3391 H   0  0  0  0  0  0  0  0  0  0  0  0
    8.2140   -7.0811   27.0240 H   0  0  0  0  0  0  0  0  0  0  0  0
  1  2  2  0  0  0  0
  1  4  1  0  0  0  0
  1 26  1  0  0  0  0
  2  6  1  0  0  0  0
  2 27  1  0  0  0  0
  3  5  1  0  0  0  0
  3  6  2  0  0  0  0
  3 28  1  0  0  0  0
  4  5  2  0  0  0  0
  4  8  1  0  0  0  0
  5 18  1  0  0  0  0
  6 25  1  0  0  0  0
  7 15  1  0  0  0  0
  7 19  1  0  0  0  0
  7 22  2  0  0  0  0
  8  9  1  0  0  0  0
  8 29  1  0  0  0  0
  8 30  1  0  0  0  0
  9 14  1  0  0  0  0
  9 31  1  0  0  0  0
  9 32  1  0  0  0  0
 10 12  1  0  0  0  0
 10 19  1  0  0  0  0
 10 33  1  0  0  0  0
 10 34  1  0  0  0  0
 11 13  1  0  0  0  0
 11 19  1  0  0  0  0
 11 35  1  0  0  0  0
 11 36  1  0  0  0  0
 12 20  1  0  0  0  0
 12 37  1  0  0  0  0
 12 38  1  0  0  0  0
 13 20  1  0  0  0  0
 13 39  1  0  0  0  0
 13 40  1  0  0  0  0
 14 17  1  0  0  0  0
 14 18  1  0  0  0  0
 14 41  1  1  0  0  0
 15 42  1  0  0  0  0
 15 43  1  0  0  0  0
 15 44  1  0  0  0  0
 16 18  1  0  0  0  0
 16 45  1  0  0  0  0
 16 46  1  0  0  0  0
 16 47  1  0  0  0  0
 17 20  1  0  0  0  0
 17 48  1  0  0  0  0
 17 49  1  0  0  0  0
 21 25  1  0  0  0  0
 21 50  1  0  0  0  0
 21 51  1  0  0  0  0
 23 25  2  0  0  0  0
 24 25  2  0  0  0  0
M  END
>  <Chemgauss4 Score>
-5.66221618652344

>  <Number of Confs>
39

$$$$
