CHR-SOS-6c4-6
 OpenBabel03242009303D

 43 45  0  0  0  0  0  0  0  0999 V2000
   10.5606   -3.1540   24.8669 C   0  0  0  0  0  0  0  0  0  0  0  0
   11.1449   -2.4821   24.0607 C   0  0  0  0  0  0  0  0  0  0  0  0
    6.2554    0.1597   18.6523 C   0  0  0  0  0  0  0  0  0  0  0  0
    5.5000    0.7138   19.6732 C   0  0  0  0  0  0  0  0  0  0  0  0
    9.6503   -3.5251   27.1225 C   0  0  0  0  0  0  0  0  0  0  0  0
    9.3694   -5.2042   25.5231 C   0  0  0  0  0  0  0  0  0  0  0  0
    7.1128    0.2463   21.2412 C   0  0  0  0  0  0  0  0  0  0  0  0
    8.5639   -5.4552   27.6339 C   0  0  0  0  0  0  0  0  0  0  0  0
    9.8663   -3.9536   25.8287 C   0  0  0  0  0  0  0  0  0  0  0  0
    7.4993   -0.3701   18.9769 C   0  0  0  0  0  0  0  0  0  0  0  0
    7.9436   -0.3300   20.2938 C   0  0  0  0  0  0  0  0  0  0  0  0
    9.7687   -0.8818   21.9507 C   0  0  0  0  0  0  0  0  0  0  0  0
   13.4275    0.1617   22.7730 C   0  0  0  0  0  0  0  0  0  0  0  0
   14.0321   -1.1008   22.1594 C   0  0  0  0  0  0  0  0  0  0  0  0
   12.2750   -0.3073   23.6594 C   0  0  0  0  0  0  0  0  0  0  0  0
   13.2129   -2.2709   22.7016 C   0  0  0  0  0  0  0  0  0  0  0  0
   11.8594   -1.6609   23.0765 C   0  0  0  0  0  0  0  0  0  0  0  0
    8.3343   -0.9743   17.8960 C   0  0  0  0  0  0  0  0  0  0  0  0
    5.8981    0.7710   20.9639 N   0  0  0  0  0  0  0  0  0  0  0  0
    9.0006   -4.2528   28.0545 N   0  0  0  0  0  0  0  0  0  0  0  0
    8.7110   -5.9851   26.4046 N   0  0  0  0  0  0  0  0  0  0  0  0
    9.2008   -0.8550   20.6739 N   0  0  0  0  0  0  0  0  0  0  0  0
   11.0266   -1.4880   21.9061 N   0  0  0  0  0  0  0  0  0  0  0  0
    9.2673   -0.4469   22.9847 O   0  0  0  0  0  0  0  0  0  0  0  0
    5.8796    0.1439   17.6349 H   0  0  0  0  0  0  0  0  0  0  0  0
    4.5227    1.1402   19.4724 H   0  0  0  0  0  0  0  0  0  0  0  0
    9.9978   -2.5555   27.4675 H   0  0  0  0  0  0  0  0  0  0  0  0
    9.4849   -5.6372   24.5338 H   0  0  0  0  0  0  0  0  0  0  0  0
    7.4039    0.3077   22.2857 H   0  0  0  0  0  0  0  0  0  0  0  0
    8.0381   -6.0609   28.3618 H   0  0  0  0  0  0  0  0  0  0  0  0
   14.1662    0.7280   23.3494 H   0  0  0  0  0  0  0  0  0  0  0  0
   13.0564    0.8205   21.9794 H   0  0  0  0  0  0  0  0  0  0  0  0
   13.9605   -1.0559   21.0666 H   0  0  0  0  0  0  0  0  0  0  0  0
   15.0918   -1.2079   22.4125 H   0  0  0  0  0  0  0  0  0  0  0  0
   12.6370   -0.4214   24.6902 H   0  0  0  0  0  0  0  0  0  0  0  0
   11.4562    0.4205   23.6905 H   0  0  0  0  0  0  0  0  0  0  0  0
   13.1326   -3.0887   21.9765 H   0  0  0  0  0  0  0  0  0  0  0  0
   13.7150   -2.6817   23.5882 H   0  0  0  0  0  0  0  0  0  0  0  0
    8.9820   -0.2130   17.4461 H   0  0  0  0  0  0  0  0  0  0  0  0
    8.9643   -1.7827   18.2870 H   0  0  0  0  0  0  0  0  0  0  0  0
    7.7077   -1.4104   17.1082 H   0  0  0  0  0  0  0  0  0  0  0  0
    9.7544   -1.2617   19.9240 H   0  0  0  0  0  0  0  0  0  0  0  0
   11.3715   -1.8220   21.0132 H   0  0  0  0  0  0  0  0  0  0  0  0
  1  2  3  0  0  0  0
  1  9  1  0  0  0  0
  2 17  1  0  0  0  0
  3  4  2  0  0  0  0
  3 10  1  0  0  0  0
  3 25  1  0  0  0  0
  4 19  1  0  0  0  0
  4 26  1  0  0  0  0
  5  9  1  0  0  0  0
  5 20  2  0  0  0  0
  5 27  1  0  0  0  0
  6  9  2  0  0  0  0
  6 21  1  0  0  0  0
  6 28  1  0  0  0  0
  7 11  1  0  0  0  0
  7 19  2  0  0  0  0
  7 29  1  0  0  0  0
  8 20  1  0  0  0  0
  8 21  2  0  0  0  0
  8 30  1  0  0  0  0
 10 11  2  0  0  0  0
 10 18  1  0  0  0  0
 11 22  1  0  0  0  0
 12 22  1  0  0  0  0
 12 23  1  0  0  0  0
 12 24  2  0  0  0  0
 13 14  1  0  0  0  0
 13 15  1  0  0  0  0
 13 31  1  0  0  0  0
 13 32  1  0  0  0  0
 14 16  1  0  0  0  0
 14 33  1  0  0  0  0
 14 34  1  0  0  0  0
 15 17  1  0  0  0  0
 15 35  1  0  0  0  0
 15 36  1  0  0  0  0
 16 17  1  0  0  0  0
 16 37  1  0  0  0  0
 16 38  1  0  0  0  0
 17 23  1  0  0  0  0
 18 39  1  0  0  0  0
 18 40  1  0  0  0  0
 18 41  1  0  0  0  0
 22 42  1  0  0  0  0
 23 43  1  0  0  0  0
M  END
>  <Chemgauss4 Score>
-7.37414741516113

>  <Number of Confs>
5

$$$$
