HEI-REL-0c9-5
 OpenBabel03242009303D

 49 51  0  0  1  0  0  0  0  0999 V2000
    9.3225   -0.9805   24.5278 C   0  0  0  0  0  0  0  0  0  0  0  0
   10.7868   -1.4255   22.6641 C   0  0  0  0  0  0  0  0  0  0  0  0
    9.6798   -2.2008   25.1222 C   0  0  0  0  0  0  0  0  0  0  0  0
   10.6208   -3.0286   24.4847 C   0  0  0  0  0  0  0  0  0  0  0  0
    9.8711   -0.5968   23.3047 C   0  0  0  0  0  0  0  0  0  0  0  0
   11.1581   -2.6355   23.2490 C   0  0  0  0  0  0  0  0  0  0  0  0
    5.5064    1.5477   18.9116 C   0  0  0  0  0  0  0  0  0  0  0  0
    9.0862   -2.5590   26.4630 C   0  0  0  0  0  0  0  0  0  0  0  0
   11.0243   -4.3609   25.0620 C   0  0  0  0  0  0  0  0  0  0  0  0
   10.6559   -4.5278   26.5361 C   0  0  0  0  0  0  0  0  0  0  0  0
    6.1865    1.9553   21.3256 C   0  0  0  0  0  0  0  0  0  0  0  0
    6.7827   -0.1441   20.1849 C   0  0  0  0  0  0  0  0  0  0  0  0
    7.5953    2.0013   21.9202 C   0  0  0  0  0  0  0  0  0  0  0  0
    8.1808   -0.0548   20.7958 C   0  0  0  0  0  0  0  0  0  0  0  0
    9.2467   -4.0315   26.8448 C   0  0  2  0  0  0  0  0  0  0  0  0
    6.1086    1.0589   17.6184 C   0  0  0  0  0  0  0  0  0  0  0  0
    9.4750    0.7000   22.6838 C   0  0  0  0  0  0  0  0  0  0  0  0
    6.1622    1.1760   20.0843 N   0  0  0  0  0  0  0  0  0  0  0  0
    8.1410    0.6464   22.0873 N   0  0  0  0  0  0  0  0  0  0  0  0
    7.9567   -4.3107   24.5403 N   0  0  0  0  0  0  0  0  0  0  0  0
    4.4826    2.2351   18.8792 O   0  0  0  0  0  0  0  0  0  0  0  0
    8.5433   -6.3827   25.9471 O   0  0  0  0  0  0  0  0  0  0  0  0
    6.7499   -4.7984   26.7590 O   0  0  0  0  0  0  0  0  0  0  0  0
    8.0062   -5.0424   26.0777 S   0  0  0  0  0  0  0  0  0  0  0  0
   12.2810   -3.6185   22.3686 Cl  0  0  0  0  0  0  0  0  0  0  0  0
    8.6089   -0.3274   25.0261 H   0  0  0  0  0  0  0  0  0  0  0  0
   11.2051   -1.1225   21.7066 H   0  0  0  0  0  0  0  0  0  0  0  0
    9.5966   -1.9445   27.2160 H   0  0  0  0  0  0  0  0  0  0  0  0
    8.0246   -2.2835   26.4821 H   0  0  0  0  0  0  0  0  0  0  0  0
   10.5459   -5.1543   24.4747 H   0  0  0  0  0  0  0  0  0  0  0  0
   12.1092   -4.4999   24.9864 H   0  0  0  0  0  0  0  0  0  0  0  0
   10.7686   -5.5805   26.8214 H   0  0  0  0  0  0  0  0  0  0  0  0
   11.3685   -3.9587   27.1481 H   0  0  0  0  0  0  0  0  0  0  0  0
    5.4923    1.4689   22.0221 H   0  0  0  0  0  0  0  0  0  0  0  0
    5.8282    2.9751   21.1715 H   0  0  0  0  0  0  0  0  0  0  0  0
    6.8389   -0.6218   19.2013 H   0  0  0  0  0  0  0  0  0  0  0  0
    6.1275   -0.7625   20.8108 H   0  0  0  0  0  0  0  0  0  0  0  0
    8.2440    2.6073   21.2780 H   0  0  0  0  0  0  0  0  0  0  0  0
    7.5376    2.4956   22.8949 H   0  0  0  0  0  0  0  0  0  0  0  0
    8.5539   -1.0731   20.9429 H   0  0  0  0  0  0  0  0  0  0  0  0
    8.8568    0.4496   20.0964 H   0  0  0  0  0  0  0  0  0  0  0  0
    9.0545   -4.1406   27.9190 H   0  0  0  0  0  0  0  0  0  0  0  0
    5.6757    0.0964   17.3668 H   0  0  0  0  0  0  0  0  0  0  0  0
    7.1827    0.9619   17.7408 H   0  0  0  0  0  0  0  0  0  0  0  0
    5.8961    1.7778   16.8337 H   0  0  0  0  0  0  0  0  0  0  0  0
    9.4720    1.5102   23.4265 H   0  0  0  0  0  0  0  0  0  0  0  0
   10.1759    0.9985   21.8921 H   0  0  0  0  0  0  0  0  0  0  0  0
    8.3482   -4.8335   23.7472 H   0  0  0  0  0  0  0  0  0  0  0  0
    7.1270   -3.7543   24.3003 H   0  0  0  0  0  0  0  0  0  0  0  0
  1  3  1  0  0  0  0
  1  5  2  0  0  0  0
  1 26  1  0  0  0  0
  2  5  1  0  0  0  0
  2  6  2  0  0  0  0
  2 27  1  0  0  0  0
  3  4  2  0  0  0  0
  3  8  1  0  0  0  0
  4  6  1  0  0  0  0
  4  9  1  0  0  0  0
  5 17  1  0  0  0  0
  6 25  1  0  0  0  0
  7 16  1  0  0  0  0
  7 18  1  0  0  0  0
  7 21  2  0  0  0  0
  8 15  1  0  0  0  0
  8 28  1  0  0  0  0
  8 29  1  0  0  0  0
  9 10  1  0  0  0  0
  9 30  1  0  0  0  0
  9 31  1  0  0  0  0
 10 15  1  0  0  0  0
 10 32  1  0  0  0  0
 10 33  1  0  0  0  0
 11 13  1  0  0  0  0
 11 18  1  0  0  0  0
 11 34  1  0  0  0  0
 11 35  1  0  0  0  0
 12 14  1  0  0  0  0
 12 18  1  0  0  0  0
 12 36  1  0  0  0  0
 12 37  1  0  0  0  0
 13 19  1  0  0  0  0
 13 38  1  0  0  0  0
 13 39  1  0  0  0  0
 14 19  1  0  0  0  0
 14 40  1  0  0  0  0
 14 41  1  0  0  0  0
 15 24  1  0  0  0  0
 15 42  1  1  0  0  0
 16 43  1  0  0  0  0
 16 44  1  0  0  0  0
 16 45  1  0  0  0  0
 17 19  1  0  0  0  0
 17 46  1  0  0  0  0
 17 47  1  0  0  0  0
 20 24  1  0  0  0  0
 20 48  1  0  0  0  0
 20 49  1  0  0  0  0
 22 24  2  0  0  0  0
 23 24  2  0  0  0  0
M  END
>  <Chemgauss4 Score>
-5.63201236724854

>  <Number of Confs>
200

$$$$
