DAR-DIA-43a-6
 OpenBabel03242009303D

 40 42  0  0  1  0  0  0  0  0999 V2000
    4.6806   -2.6524   24.7755 C   0  0  0  0  0  0  0  0  0  0  0  0
   12.2122    0.0157   22.1107 C   0  0  0  0  0  0  0  0  0  0  0  0
    5.6757   -3.6047   24.5550 C   0  0  0  0  0  0  0  0  0  0  0  0
   12.3227   -1.3124   22.5071 C   0  0  0  0  0  0  0  0  0  0  0  0
    4.9964   -1.4453   25.3991 C   0  0  0  0  0  0  0  0  0  0  0  0
    7.3022   -2.1428   25.5819 C   0  0  0  0  0  0  0  0  0  0  0  0
   11.2975    0.8168   22.7748 C   0  0  0  0  0  0  0  0  0  0  0  0
   10.6424   -0.9099   24.1414 C   0  0  0  0  0  0  0  0  0  0  0  0
    6.9865   -3.3499   24.9583 C   0  0  0  0  0  0  0  0  0  0  0  0
   11.5264   -1.7920   23.5411 C   0  0  0  0  0  0  0  0  0  0  0  0
    6.3072   -1.1905   25.8023 C   0  0  0  0  0  0  0  0  0  0  0  0
    9.1889   -3.8751   23.8557 C   0  0  0  0  0  0  0  0  0  0  0  0
   10.3393   -3.7511   24.5309 C   0  0  0  0  0  0  0  0  0  0  0  0
    8.1010   -4.7595   27.2564 C   0  0  0  0  0  0  0  0  0  0  0  0
    8.0670   -4.3858   24.7194 C   0  0  1  0  0  0  0  0  0  0  0  0
   10.1802   -4.1534   25.9674 C   0  0  1  0  0  0  0  0  0  0  0  0
    8.8381   -4.9003   25.9578 C   0  0  1  0  0  0  0  0  0  0  0  0
   11.6230   -3.2268   23.9946 C   0  0  0  0  0  0  0  0  0  0  0  0
   10.5069    0.3867   23.7836 N   0  0  0  0  0  0  0  0  0  0  0  0
    7.3331   -5.8532   27.5796 N   0  0  0  0  0  0  0  0  0  0  0  0
    8.2024   -3.7569   27.9592 O   0  0  0  0  0  0  0  0  0  0  0  0
   11.2079   -5.0428   26.3784 O   0  0  0  0  0  0  0  0  0  0  0  0
    6.6959    0.2985   26.5727 Cl  0  0  0  0  0  0  0  0  0  0  0  0
    3.6600   -2.8512   24.4615 H   0  0  0  0  0  0  0  0  0  0  0  0
   12.8230    0.4113   21.3072 H   0  0  0  0  0  0  0  0  0  0  0  0
    5.4206   -4.5425   24.0685 H   0  0  0  0  0  0  0  0  0  0  0  0
   13.0314   -1.9657   22.0054 H   0  0  0  0  0  0  0  0  0  0  0  0
    4.2106   -0.7124   25.5647 H   0  0  0  0  0  0  0  0  0  0  0  0
    8.3258   -1.9487   25.8940 H   0  0  0  0  0  0  0  0  0  0  0  0
   11.1732    1.8598   22.5028 H   0  0  0  0  0  0  0  0  0  0  0  0
    9.9954   -1.2270   24.9534 H   0  0  0  0  0  0  0  0  0  0  0  0
    9.0642   -3.6210   22.8115 H   0  0  0  0  0  0  0  0  0  0  0  0
    7.5795   -5.2590   24.2126 H   0  0  0  0  0  0  0  0  0  0  0  0
   10.1841   -3.2771   26.6238 H   0  0  0  0  0  0  0  0  0  0  0  0
    9.0233   -5.9821   25.8299 H   0  0  0  0  0  0  0  0  0  0  0  0
   11.9531   -3.8505   23.1530 H   0  0  0  0  0  0  0  0  0  0  0  0
   12.4051   -3.3236   24.7590 H   0  0  0  0  0  0  0  0  0  0  0  0
    7.3200   -6.6440   26.9439 H   0  0  0  0  0  0  0  0  0  0  0  0
    6.7788   -5.9013   28.4283 H   0  0  0  0  0  0  0  0  0  0  0  0
   11.1463   -5.8276   25.8090 H   0  0  0  0  0  0  0  0  0  0  0  0
  1  3  2  0  0  0  0
  1  5  1  0  0  0  0
  1 24  1  0  0  0  0
  2  4  2  0  0  0  0
  2  7  1  0  0  0  0
  2 25  1  0  0  0  0
  3  9  1  0  0  0  0
  3 26  1  0  0  0  0
  4 10  1  0  0  0  0
  4 27  1  0  0  0  0
  5 11  2  0  0  0  0
  5 28  1  0  0  0  0
  6  9  2  0  0  0  0
  6 11  1  0  0  0  0
  6 29  1  0  0  0  0
  7 19  2  0  0  0  0
  7 30  1  0  0  0  0
  8 10  2  0  0  0  0
  8 19  1  0  0  0  0
  8 31  1  0  0  0  0
  9 15  1  0  0  0  0
 10 18  1  0  0  0  0
 11 23  1  0  0  0  0
 12 13  2  0  0  0  0
 12 15  1  0  0  0  0
 12 32  1  0  0  0  0
 13 16  1  0  0  0  0
 13 18  1  0  0  0  0
 14 17  1  0  0  0  0
 14 20  1  0  0  0  0
 14 21  2  0  0  0  0
 15 17  1  0  0  0  0
 15 33  1  6  0  0  0
 16 17  1  0  0  0  0
 16 22  1  0  0  0  0
 16 34  1  1  0  0  0
 17 35  1  6  0  0  0
 18 36  1  0  0  0  0
 18 37  1  0  0  0  0
 20 38  1  0  0  0  0
 20 39  1  0  0  0  0
 22 40  1  0  0  0  0
M  END
>  <Chemgauss4 Score>
-4.56854152679443

>  <Number of Confs>
200

$$$$
