DAV-AUT-fa2-3
 OpenBabel03242009303D

 48 50  0  0  1  0  0  0  0  0999 V2000
   10.6855   -2.8297   25.9034 C   0  0  0  0  0  0  0  0  0  0  0  0
   11.1889   -2.0031   24.9039 C   0  0  0  0  0  0  0  0  0  0  0  0
    9.3943   -2.7021   23.4604 C   0  0  0  0  0  0  0  0  0  0  0  0
    9.5174   -3.5982   25.7053 C   0  0  0  0  0  0  0  0  0  0  0  0
    8.8565   -3.5598   24.4462 C   0  0  0  0  0  0  0  0  0  0  0  0
   10.5393   -1.9348   23.6833 C   0  0  0  0  0  0  0  0  0  0  0  0
    5.6692   -3.8074   22.9544 C   0  0  0  0  0  0  0  0  0  0  0  0
    7.1093   -5.7564   22.3007 C   0  0  0  0  0  0  0  0  0  0  0  0
    7.2799   -5.3258   25.1595 C   0  0  0  0  0  0  0  0  0  0  0  0
    4.9798   -3.9544   21.6039 C   0  0  0  0  0  0  0  0  0  0  0  0
    6.3404   -5.7932   20.9861 C   0  0  0  0  0  0  0  0  0  0  0  0
    7.0988   -4.3461   22.8921 C   0  0  0  0  0  0  0  0  0  0  0  0
    9.0046   -4.4998   26.8372 C   0  0  0  0  0  0  0  0  0  0  0  0
    7.5302   -4.8501   26.5728 C   0  0  0  0  0  0  0  0  0  0  0  0
    9.8703   -5.7778   26.8658 C   0  0  0  0  0  0  0  0  0  0  0  0
    9.0823   -3.8286   28.2268 C   0  0  0  0  0  0  0  0  0  0  0  0
   11.1002    0.7636   23.1087 C   0  0  0  0  0  0  0  0  0  0  0  0
   12.6410   -1.2433   22.2383 N   0  0  0  0  0  0  0  0  0  0  0  0
    7.7149   -4.3234   24.1953 N   0  0  0  0  0  0  0  0  0  0  0  0
   10.1578   -0.8622   21.3526 O   0  0  0  0  0  0  0  0  0  0  0  0
    5.0084   -5.3127   21.1657 O   0  0  0  0  0  0  0  0  0  0  0  0
    6.7458   -3.7602   26.8016 F   0  0  0  0  0  0  0  0  0  0  0  0
    7.1093   -5.8033   27.4438 F   0  0  0  0  0  0  0  0  0  0  0  0
   11.1452   -0.8820   22.4287 S   0  0  1  0  0  0  0  0  0  0  0  0
   11.2178   -2.8593   26.8502 H   0  0  0  0  0  0  0  0  0  0  0  0
   12.0848   -1.4184   25.0927 H   0  0  0  0  0  0  0  0  0  0  0  0
    8.9157   -2.6129   22.4872 H   0  0  0  0  0  0  0  0  0  0  0  0
    5.7204   -2.7431   23.2038 H   0  0  0  0  0  0  0  0  0  0  0  0
    5.0917   -4.3002   23.7392 H   0  0  0  0  0  0  0  0  0  0  0  0
    6.7085   -6.4871   23.0044 H   0  0  0  0  0  0  0  0  0  0  0  0
    8.1492   -6.0283   22.1003 H   0  0  0  0  0  0  0  0  0  0  0  0
    7.8378   -6.2579   25.0088 H   0  0  0  0  0  0  0  0  0  0  0  0
    6.2234   -5.5694   25.0006 H   0  0  0  0  0  0  0  0  0  0  0  0
    3.9418   -3.6022   21.6368 H   0  0  0  0  0  0  0  0  0  0  0  0
    5.5045   -3.3537   20.8535 H   0  0  0  0  0  0  0  0  0  0  0  0
    6.8303   -5.1458   20.2520 H   0  0  0  0  0  0  0  0  0  0  0  0
    6.3098   -6.8039   20.5636 H   0  0  0  0  0  0  0  0  0  0  0  0
    7.6950   -3.6822   22.2285 H   0  0  0  0  0  0  0  0  0  0  0  0
    9.5181   -6.4229   27.6610 H   0  0  0  0  0  0  0  0  0  0  0  0
   10.9015   -5.4996   27.0438 H   0  0  0  0  0  0  0  0  0  0  0  0
    9.7821   -6.2832   25.9121 H   0  0  0  0  0  0  0  0  0  0  0  0
    8.7064   -4.5181   28.9728 H   0  0  0  0  0  0  0  0  0  0  0  0
    8.4791   -2.9289   28.2178 H   0  0  0  0  0  0  0  0  0  0  0  0
   10.1147   -3.5794   28.4405 H   0  0  0  0  0  0  0  0  0  0  0  0
   11.4725    1.4583   22.3541 H   0  0  0  0  0  0  0  0  0  0  0  0
   10.0677    1.0001   23.3701 H   0  0  0  0  0  0  0  0  0  0  0  0
   11.7346    0.7868   23.9961 H   0  0  0  0  0  0  0  0  0  0  0  0
   13.1098   -0.6847   21.5189 H   0  0  0  0  0  0  0  0  0  0  0  0
  1  2  2  0  0  0  0
  1  4  1  0  0  0  0
  1 25  1  0  0  0  0
  2  6  1  0  0  0  0
  2 26  1  0  0  0  0
  3  5  1  0  0  0  0
  3  6  2  0  0  0  0
  3 27  1  0  0  0  0
  4  5  2  0  0  0  0
  4 13  1  0  0  0  0
  5 19  1  0  0  0  0
  6 24  1  0  0  0  0
  7 10  1  0  0  0  0
  7 12  1  0  0  0  0
  7 28  1  0  0  0  0
  7 29  1  0  0  0  0
  8 11  1  0  0  0  0
  8 12  1  0  0  0  0
  8 30  1  0  0  0  0
  8 31  1  0  0  0  0
  9 14  1  0  0  0  0
  9 19  1  0  0  0  0
  9 32  1  0  0  0  0
  9 33  1  0  0  0  0
 10 21  1  0  0  0  0
 10 34  1  0  0  0  0
 10 35  1  0  0  0  0
 11 21  1  0  0  0  0
 11 36  1  0  0  0  0
 11 37  1  0  0  0  0
 12 19  1  0  0  0  0
 12 38  1  0  0  0  0
 13 14  1  0  0  0  0
 13 15  1  0  0  0  0
 13 16  1  0  0  0  0
 14 22  1  0  0  0  0
 14 23  1  0  0  0  0
 15 39  1  0  0  0  0
 15 40  1  0  0  0  0
 15 41  1  0  0  0  0
 16 42  1  0  0  0  0
 16 43  1  0  0  0  0
 16 44  1  0  0  0  0
 17 24  1  0  0  0  0
 17 45  1  0  0  0  0
 17 46  1  0  0  0  0
 17 47  1  0  0  0  0
 18 24  2  0  0  0  0
 18 48  1  0  0  0  0
 24 20  2  6  0  0  0
M  END
>  <Chemgauss4 Score>
-5.01088047027588

>  <Number of Confs>
12

$$$$
