JOH-MEM-5e3-5
 OpenBabel03242009303D

 48 51  0  0  1  0  0  0  0  0999 V2000
   10.8575   -2.4380   22.9315 C   0  0  0  0  0  0  0  0  0  0  0  0
   10.9588   -2.7280   24.2954 C   0  0  0  0  0  0  0  0  0  0  0  0
    8.7525   -1.8035   24.7237 C   0  0  0  0  0  0  0  0  0  0  0  0
    8.6239   -1.5000   23.3557 C   0  0  0  0  0  0  0  0  0  0  0  0
    7.6317   -0.9059   22.5574 C   0  0  0  0  0  0  0  0  0  0  0  0
    9.6826   -1.8241   22.4819 C   0  0  0  0  0  0  0  0  0  0  0  0
    9.9255   -2.4171   25.1778 C   0  0  0  0  0  0  0  0  0  0  0  0
    8.0889   -0.8838   21.2744 C   0  0  0  0  0  0  0  0  0  0  0  0
    7.7371   -5.7912   24.7545 C   0  0  0  0  0  0  0  0  0  0  0  0
    7.4647   -0.1994   19.0433 C   0  0  0  0  0  0  0  0  0  0  0  0
    6.2776   -0.3077   22.6568 C   0  0  0  0  0  0  0  0  0  0  0  0
    5.9859    0.0914   21.1620 C   0  0  0  0  0  0  0  0  0  0  0  0
    8.2284   -4.8295   25.8157 C   0  0  1  0  0  0  0  0  0  0  0  0
    7.5780   -5.1722   27.1521 C   0  0  2  0  0  0  0  0  0  0  0  0
    8.1620   -4.2750   28.2487 C   0  0  2  0  0  0  0  0  0  0  0  0
    9.6899   -4.3628   28.2432 C   0  0  1  0  0  0  0  0  0  0  0  0
   10.2483   -4.0868   26.8419 C   0  0  1  0  0  0  0  0  0  0  0  0
    6.3550    0.4468   18.2521 C   0  0  0  0  0  0  0  0  0  0  0  0
    9.3207   -1.4295   21.1993 N   0  0  0  0  0  0  0  0  0  0  0  0
    7.2031   -0.3229   20.3912 N   0  0  0  0  0  0  0  0  0  0  0  0
    8.4482   -6.5456   24.1076 O   0  0  0  0  0  0  0  0  0  0  0  0
    8.4956   -0.5661   18.4783 O   0  0  0  0  0  0  0  0  0  0  0  0
    9.6492   -4.9615   25.8801 O   0  0  0  0  0  0  0  0  0  0  0  0
    6.3919   -5.7022   24.6137 O   0  0  0  0  0  0  0  0  0  0  0  0
    7.8601   -6.5395   27.4677 O   0  0  0  0  0  0  0  0  0  0  0  0
    7.6713   -4.6818   29.5233 O   0  0  0  0  0  0  0  0  0  0  0  0
   10.2210   -3.4276   29.1766 O   0  0  0  0  0  0  0  0  0  0  0  0
   10.0575   -2.7140   26.5018 O   0  0  0  0  0  0  0  0  0  0  0  0
   11.6645   -2.6818   22.2486 H   0  0  0  0  0  0  0  0  0  0  0  0
   11.8631   -3.2049   24.6670 H   0  0  0  0  0  0  0  0  0  0  0  0
    7.9524   -1.5648   25.4190 H   0  0  0  0  0  0  0  0  0  0  0  0
    5.5427   -1.0343   23.0153 H   0  0  0  0  0  0  0  0  0  0  0  0
    6.2752    0.5755   23.3022 H   0  0  0  0  0  0  0  0  0  0  0  0
    5.1129   -0.4351   20.7630 H   0  0  0  0  0  0  0  0  0  0  0  0
    5.8407    1.1708   21.0498 H   0  0  0  0  0  0  0  0  0  0  0  0
    7.9498   -3.8242   25.4932 H   0  0  0  0  0  0  0  0  0  0  0  0
    6.4885   -5.0744   27.1038 H   0  0  0  0  0  0  0  0  0  0  0  0
    7.8437   -3.2362   28.0996 H   0  0  0  0  0  0  0  0  0  0  0  0
    9.9925   -5.3632   28.5765 H   0  0  0  0  0  0  0  0  0  0  0  0
   11.3283   -4.2712   26.8434 H   0  0  0  0  0  0  0  0  0  0  0  0
    6.5125    1.5200   18.2317 H   0  0  0  0  0  0  0  0  0  0  0  0
    5.4042    0.2201   18.7236 H   0  0  0  0  0  0  0  0  0  0  0  0
    6.3628    0.0511   17.2417 H   0  0  0  0  0  0  0  0  0  0  0  0
    9.8881   -1.5382   20.3692 H   0  0  0  0  0  0  0  0  0  0  0  0
    6.0538   -6.3171   23.9283 H   0  0  0  0  0  0  0  0  0  0  0  0
    8.8243   -6.6124   27.5162 H   0  0  0  0  0  0  0  0  0  0  0  0
    6.7059   -4.5955   29.4884 H   0  0  0  0  0  0  0  0  0  0  0  0
   11.1863   -3.5170   29.1403 H   0  0  0  0  0  0  0  0  0  0  0  0
  1  2  2  0  0  0  0
  1  6  1  0  0  0  0
  1 29  1  0  0  0  0
  2  7  1  0  0  0  0
  2 30  1  0  0  0  0
  3  4  1  0  0  0  0
  3  7  2  0  0  0  0
  3 31  1  0  0  0  0
  4  5  1  0  0  0  0
  4  6  2  0  0  0  0
  5  8  2  0  0  0  0
  5 11  1  0  0  0  0
  6 19  1  0  0  0  0
  7 28  1  0  0  0  0
  8 19  1  0  0  0  0
  8 20  1  0  0  0  0
  9 13  1  0  0  0  0
  9 21  2  0  0  0  0
  9 24  1  0  0  0  0
 10 18  1  0  0  0  0
 10 20  1  0  0  0  0
 10 22  2  0  0  0  0
 11 12  1  0  0  0  0
 11 32  1  0  0  0  0
 11 33  1  0  0  0  0
 12 20  1  0  0  0  0
 12 34  1  0  0  0  0
 12 35  1  0  0  0  0
 13 14  1  0  0  0  0
 13 23  1  0  0  0  0
 13 36  1  6  0  0  0
 14 15  1  0  0  0  0
 14 25  1  0  0  0  0
 14 37  1  6  0  0  0
 15 16  1  0  0  0  0
 15 26  1  0  0  0  0
 15 38  1  6  0  0  0
 16 17  1  0  0  0  0
 16 27  1  0  0  0  0
 16 39  1  1  0  0  0
 17 23  1  0  0  0  0
 17 28  1  0  0  0  0
 17 40  1  1  0  0  0
 18 41  1  0  0  0  0
 18 42  1  0  0  0  0
 18 43  1  0  0  0  0
 19 44  1  0  0  0  0
 24 45  1  0  0  0  0
 25 46  1  0  0  0  0
 26 47  1  0  0  0  0
 27 48  1  0  0  0  0
M  END
>  <Chemgauss4 Score>
-5.82239723205566

>  <Number of Confs>
67

$$$$
