GIA-UNK-595-3
 OpenBabel03242009303D

 36 37  0  0  0  0  0  0  0  0999 V2000
   12.6147   -1.7146   21.7412 C   0  0  0  0  0  0  0  0  0  0  0  0
   11.8852   -0.3264   23.5647 C   0  0  0  0  0  0  0  0  0  0  0  0
   13.8744   -1.1577   21.8921 C   0  0  0  0  0  0  0  0  0  0  0  0
   13.1777    0.1683   23.6340 C   0  0  0  0  0  0  0  0  0  0  0  0
   11.6067   -1.2856   22.5974 C   0  0  0  0  0  0  0  0  0  0  0  0
   10.2537   -1.8436   22.4809 C   0  0  0  0  0  0  0  0  0  0  0  0
    7.8580   -5.5796   27.2393 C   0  0  0  0  0  0  0  0  0  0  0  0
   10.4268   -3.7220   25.5200 C   0  0  0  0  0  0  0  0  0  0  0  0
    8.0901   -3.8586   24.5855 C   0  0  0  0  0  0  0  0  0  0  0  0
   10.9609   -3.5746   24.0986 C   0  0  0  0  0  0  0  0  0  0  0  0
    8.6712   -3.7153   23.1827 C   0  0  0  0  0  0  0  0  0  0  0  0
    9.1049   -4.4915   25.5406 C   0  0  0  0  0  0  0  0  0  0  0  0
    7.7149   -4.2863   29.3624 C   0  0  0  0  0  0  0  0  0  0  0  0
   14.1830   -0.2240   22.8197 N   0  0  0  0  0  0  0  0  0  0  0  0
    9.9450   -2.9840   23.2258 N   0  0  0  0  0  0  0  0  0  0  0  0
    7.4231   -5.4379   28.5403 N   0  0  0  0  0  0  0  0  0  0  0  0
    9.4889   -1.2580   21.7159 O   0  0  0  0  0  0  0  0  0  0  0  0
    7.6326   -6.5391   26.5091 O   0  0  0  0  0  0  0  0  0  0  0  0
    8.5897   -4.4822   26.8665 O   0  0  0  0  0  0  0  0  0  0  0  0
   12.4320   -2.4622   20.9766 H   0  0  0  0  0  0  0  0  0  0  0  0
   11.1220    0.0295   24.2486 H   0  0  0  0  0  0  0  0  0  0  0  0
   14.6953   -1.4590   21.2500 H   0  0  0  0  0  0  0  0  0  0  0  0
   13.4463    0.9181   24.3706 H   0  0  0  0  0  0  0  0  0  0  0  0
   11.1635   -4.2376   26.1476 H   0  0  0  0  0  0  0  0  0  0  0  0
   10.2899   -2.7321   25.9748 H   0  0  0  0  0  0  0  0  0  0  0  0
    7.7777   -2.8778   24.9668 H   0  0  0  0  0  0  0  0  0  0  0  0
    7.1810   -4.4707   24.5548 H   0  0  0  0  0  0  0  0  0  0  0  0
   11.8693   -2.9638   24.1036 H   0  0  0  0  0  0  0  0  0  0  0  0
   11.2240   -4.5539   23.6817 H   0  0  0  0  0  0  0  0  0  0  0  0
    8.8761   -4.7018   22.7500 H   0  0  0  0  0  0  0  0  0  0  0  0
    7.9437   -3.2207   22.5343 H   0  0  0  0  0  0  0  0  0  0  0  0
    9.2853   -5.5354   25.2568 H   0  0  0  0  0  0  0  0  0  0  0  0
    8.6536   -4.4547   29.9106 H   0  0  0  0  0  0  0  0  0  0  0  0
    7.8180   -3.3966   28.7237 H   0  0  0  0  0  0  0  0  0  0  0  0
    6.8950   -4.1302   30.0789 H   0  0  0  0  0  0  0  0  0  0  0  0
    6.8664   -6.1853   28.9432 H   0  0  0  0  0  0  0  0  0  0  0  0
  1  3  2  0  0  0  0
  1  5  1  0  0  0  0
  1 20  1  0  0  0  0
  2  4  1  0  0  0  0
  2  5  2  0  0  0  0
  2 21  1  0  0  0  0
  3 14  1  0  0  0  0
  3 22  1  0  0  0  0
  4 14  2  0  0  0  0
  4 23  1  0  0  0  0
  5  6  1  0  0  0  0
  6 15  1  0  0  0  0
  6 17  2  0  0  0  0
  7 16  1  0  0  0  0
  7 18  2  0  0  0  0
  7 19  1  0  0  0  0
  8 10  1  0  0  0  0
  8 12  1  0  0  0  0
  8 24  1  0  0  0  0
  8 25  1  0  0  0  0
  9 11  1  0  0  0  0
  9 12  1  0  0  0  0
  9 26  1  0  0  0  0
  9 27  1  0  0  0  0
 10 15  1  0  0  0  0
 10 28  1  0  0  0  0
 10 29  1  0  0  0  0
 11 15  1  0  0  0  0
 11 30  1  0  0  0  0
 11 31  1  0  0  0  0
 12 19  1  0  0  0  0
 12 32  1  0  0  0  0
 13 16  1  0  0  0  0
 13 33  1  0  0  0  0
 13 34  1  0  0  0  0
 13 35  1  0  0  0  0
 16 36  1  0  0  0  0
M  END
>  <Chemgauss4 Score>
-5.47024059295654

>  <Number of Confs>
46

$$$$
