JOR-UNI-2fc-2
 OpenBabel03242009303D

 38 39  0  0  0  0  0  0  0  0999 V2000
    5.3641   -4.4748   22.6072 C   0  0  0  0  0  0  0  0  0  0  0  0
   13.3443   -0.3428   22.6418 C   0  0  0  0  0  0  0  0  0  0  0  0
    6.6860   -4.0630   22.7762 C   0  0  0  0  0  0  0  0  0  0  0  0
   12.5210   -1.4558   22.5122 C   0  0  0  0  0  0  0  0  0  0  0  0
    4.7975   -5.3847   23.4999 C   0  0  0  0  0  0  0  0  0  0  0  0
    6.8747   -5.4709   24.7305 C   0  0  0  0  0  0  0  0  0  0  0  0
   13.0443    0.5735   23.6368 C   0  0  0  0  0  0  0  0  0  0  0  0
   11.2236   -0.6429   24.3321 C   0  0  0  0  0  0  0  0  0  0  0  0
    7.4413   -4.5610   23.8378 C   0  0  0  0  0  0  0  0  0  0  0  0
   11.4381   -1.6161   23.3695 C   0  0  0  0  0  0  0  0  0  0  0  0
    5.5528   -5.8827   24.5615 C   0  0  0  0  0  0  0  0  0  0  0  0
    9.1277   -4.1418   26.9684 C   0  0  0  0  0  0  0  0  0  0  0  0
    9.2191   -2.8075   23.5777 C   0  0  0  0  0  0  0  0  0  0  0  0
   10.2618   -4.4079   25.9954 C   0  0  0  0  0  0  0  0  0  0  0  0
    9.7467   -5.0053   24.6927 C   0  0  0  0  0  0  0  0  0  0  0  0
   12.0014    0.4517   24.4884 N   0  0  0  0  0  0  0  0  0  0  0  0
    8.5828   -2.9642   26.9611 N   0  0  0  0  0  0  0  0  0  0  0  0
    8.7399   -5.1701   27.7867 N   0  0  0  0  0  0  0  0  0  0  0  0
   10.5818   -2.7387   23.2619 N   0  0  0  0  0  0  0  0  0  0  0  0
    8.8310   -4.1281   24.0137 N   0  0  0  0  0  0  0  0  0  0  0  0
    8.4467   -1.8516   23.4918 O   0  0  0  0  0  0  0  0  0  0  0  0
    4.8538   -7.0052   25.6630 Cl  0  0  0  0  0  0  0  0  0  0  0  0
    4.7760   -4.0870   21.7804 H   0  0  0  0  0  0  0  0  0  0  0  0
   14.1941   -0.1974   21.9846 H   0  0  0  0  0  0  0  0  0  0  0  0
    7.1169   -3.3535   22.0740 H   0  0  0  0  0  0  0  0  0  0  0  0
   12.7321   -2.1913   21.7405 H   0  0  0  0  0  0  0  0  0  0  0  0
    3.7662   -5.6960   23.3555 H   0  0  0  0  0  0  0  0  0  0  0  0
    7.4666   -5.8570   25.5576 H   0  0  0  0  0  0  0  0  0  0  0  0
   13.6554    1.4588   23.7785 H   0  0  0  0  0  0  0  0  0  0  0  0
   10.3948   -0.7126   25.0304 H   0  0  0  0  0  0  0  0  0  0  0  0
   10.8024   -3.4727   25.8075 H   0  0  0  0  0  0  0  0  0  0  0  0
   10.9618   -5.1068   26.4676 H   0  0  0  0  0  0  0  0  0  0  0  0
   10.5793   -5.1889   24.0067 H   0  0  0  0  0  0  0  0  0  0  0  0
    9.2253   -5.9520   24.8650 H   0  0  0  0  0  0  0  0  0  0  0  0
    9.0497   -2.3895   26.2510 H   0  0  0  0  0  0  0  0  0  0  0  0
    9.1965   -6.0748   27.7449 H   0  0  0  0  0  0  0  0  0  0  0  0
    7.9910   -5.0624   28.4627 H   0  0  0  0  0  0  0  0  0  0  0  0
   11.0056   -3.5946   22.9149 H   0  0  0  0  0  0  0  0  0  0  0  0
  1  3  2  0  0  0  0
  1  5  1  0  0  0  0
  1 23  1  0  0  0  0
  2  4  2  0  0  0  0
  2  7  1  0  0  0  0
  2 24  1  0  0  0  0
  3  9  1  0  0  0  0
  3 25  1  0  0  0  0
  4 10  1  0  0  0  0
  4 26  1  0  0  0  0
  5 11  2  0  0  0  0
  5 27  1  0  0  0  0
  6  9  2  0  0  0  0
  6 11  1  0  0  0  0
  6 28  1  0  0  0  0
  7 16  2  0  0  0  0
  7 29  1  0  0  0  0
  8 10  2  0  0  0  0
  8 16  1  0  0  0  0
  8 30  1  0  0  0  0
  9 20  1  0  0  0  0
 10 19  1  0  0  0  0
 11 22  1  0  0  0  0
 12 14  1  0  0  0  0
 12 17  2  0  0  0  0
 12 18  1  0  0  0  0
 13 19  1  0  0  0  0
 13 20  1  0  0  0  0
 13 21  2  0  0  0  0
 14 15  1  0  0  0  0
 14 31  1  0  0  0  0
 14 32  1  0  0  0  0
 15 20  1  0  0  0  0
 15 33  1  0  0  0  0
 15 34  1  0  0  0  0
 17 35  1  0  0  0  0
 18 36  1  0  0  0  0
 18 37  1  0  0  0  0
 19 38  1  0  0  0  0
M  END
>  <Chemgauss4 Score>
-7.37377023696899

>  <Number of Confs>
200

$$$$
