CHR-SOS-1f3-10
 OpenBabel03242009303D

 38 40  0  0  0  0  0  0  0  0999 V2000
    8.2885   -4.0938   28.6722 C   0  0  0  0  0  0  0  0  0  0  0  0
    7.2664   -4.8413   28.0873 C   0  0  0  0  0  0  0  0  0  0  0  0
    9.5443   -4.0364   28.0676 C   0  0  0  0  0  0  0  0  0  0  0  0
    7.5000   -5.5315   26.8979 C   0  0  0  0  0  0  0  0  0  0  0  0
    9.7779   -4.7266   26.8782 C   0  0  0  0  0  0  0  0  0  0  0  0
   13.4735    0.0953   22.9128 C   0  0  0  0  0  0  0  0  0  0  0  0
   12.8425    0.9300   23.8210 C   0  0  0  0  0  0  0  0  0  0  0  0
   11.2452   -0.6505   24.2997 C   0  0  0  0  0  0  0  0  0  0  0  0
   12.9366   -1.1714   22.7110 C   0  0  0  0  0  0  0  0  0  0  0  0
   11.8013   -1.5592   23.4138 C   0  0  0  0  0  0  0  0  0  0  0  0
    8.7558   -5.4742   26.2934 C   0  0  0  0  0  0  0  0  0  0  0  0
   10.0860   -3.3541   23.8795 C   0  0  0  0  0  0  0  0  0  0  0  0
    7.3067   -4.9840   23.7332 C   0  0  0  0  0  0  0  0  0  0  0  0
    7.8102   -6.1606   22.9523 C   0  0  0  0  0  0  0  0  0  0  0  0
    8.7274   -5.4521   23.9154 C   0  0  0  0  0  0  0  0  0  0  0  0
   13.5964   -2.0917   21.7371 C   0  0  0  0  0  0  0  0  0  0  0  0
   11.7382    0.5885   24.5222 N   0  0  0  0  0  0  0  0  0  0  0  0
   11.2180   -2.8365   23.2438 N   0  0  0  0  0  0  0  0  0  0  0  0
    9.8155   -4.6700   23.4445 N   0  0  0  0  0  0  0  0  0  0  0  0
    9.3868   -2.7809   24.7115 O   0  0  0  0  0  0  0  0  0  0  0  0
    8.9848   -6.1488   25.1337 O   0  0  0  0  0  0  0  0  0  0  0  0
    8.1067   -3.5558   29.5979 H   0  0  0  0  0  0  0  0  0  0  0  0
    6.2885   -4.8862   28.5580 H   0  0  0  0  0  0  0  0  0  0  0  0
   10.3397   -3.4540   28.5236 H   0  0  0  0  0  0  0  0  0  0  0  0
    6.7000   -6.1132   26.4482 H   0  0  0  0  0  0  0  0  0  0  0  0
   10.7586   -4.6798   26.4127 H   0  0  0  0  0  0  0  0  0  0  0  0
   14.3579    0.4284   22.3804 H   0  0  0  0  0  0  0  0  0  0  0  0
   13.2216    1.9281   24.0144 H   0  0  0  0  0  0  0  0  0  0  0  0
   10.3589   -0.8948   24.8778 H   0  0  0  0  0  0  0  0  0  0  0  0
    7.1327   -4.0605   23.1940 H   0  0  0  0  0  0  0  0  0  0  0  0
    6.5973   -5.1735   24.5296 H   0  0  0  0  0  0  0  0  0  0  0  0
    7.4399   -7.1419   23.2238 H   0  0  0  0  0  0  0  0  0  0  0  0
    7.9741   -6.0260   21.8898 H   0  0  0  0  0  0  0  0  0  0  0  0
   14.3576   -2.6971   22.2425 H   0  0  0  0  0  0  0  0  0  0  0  0
   12.8665   -2.7651   21.2712 H   0  0  0  0  0  0  0  0  0  0  0  0
   14.0772   -1.5313   20.9256 H   0  0  0  0  0  0  0  0  0  0  0  0
   11.6817   -3.4484   22.5768 H   0  0  0  0  0  0  0  0  0  0  0  0
   10.4428   -5.0862   22.7462 H   0  0  0  0  0  0  0  0  0  0  0  0
  1  2  1  0  0  0  0
  1  3  2  0  0  0  0
  1 22  1  0  0  0  0
  2  4  2  0  0  0  0
  2 23  1  0  0  0  0
  3  5  1  0  0  0  0
  3 24  1  0  0  0  0
  4 11  1  0  0  0  0
  4 25  1  0  0  0  0
  5 11  2  0  0  0  0
  5 26  1  0  0  0  0
  6  7  2  0  0  0  0
  6  9  1  0  0  0  0
  6 27  1  0  0  0  0
  7 17  1  0  0  0  0
  7 28  1  0  0  0  0
  8 10  1  0  0  0  0
  8 17  2  0  0  0  0
  8 29  1  0  0  0  0
  9 10  2  0  0  0  0
  9 16  1  0  0  0  0
 10 18  1  0  0  0  0
 11 21  1  0  0  0  0
 12 18  1  0  0  0  0
 12 19  1  0  0  0  0
 12 20  2  0  0  0  0
 13 14  1  0  0  0  0
 13 15  1  0  0  0  0
 13 30  1  0  0  0  0
 13 31  1  0  0  0  0
 14 15  1  0  0  0  0
 14 32  1  0  0  0  0
 14 33  1  0  0  0  0
 15 19  1  0  0  0  0
 15 21  1  0  0  0  0
 16 34  1  0  0  0  0
 16 35  1  0  0  0  0
 16 36  1  0  0  0  0
 18 37  1  0  0  0  0
 19 38  1  0  0  0  0
M  END
>  <Chemgauss4 Score>
-5.44177198410034

>  <Number of Confs>
24

$$$$
