PAU-WEI-b9b-1
 OpenBabel03242009303D

 50 52  0  0  1  0  0  0  0  0999 V2000
    6.6549    2.8531   21.5590 C   0  0  0  0  0  0  0  0  0  0  0  0
    5.8971    1.7674   21.1202 C   0  0  0  0  0  0  0  0  0  0  0  0
    8.0223    2.7016   21.7894 C   0  0  0  0  0  0  0  0  0  0  0  0
   12.5317    0.3748   24.0308 C   0  0  0  0  0  0  0  0  0  0  0  0
    6.5065    0.5302   20.9119 C   0  0  0  0  0  0  0  0  0  0  0  0
    8.6318    1.4643   21.5810 C   0  0  0  0  0  0  0  0  0  0  0  0
   11.1690    0.0849   24.0998 C   0  0  0  0  0  0  0  0  0  0  0  0
   13.3639   -0.3780   23.2023 C   0  0  0  0  0  0  0  0  0  0  0  0
   11.4707   -1.7108   22.5118 C   0  0  0  0  0  0  0  0  0  0  0  0
    7.8739    0.3786   21.1422 C   0  0  0  0  0  0  0  0  0  0  0  0
   10.6386   -0.9579   23.3403 C   0  0  0  0  0  0  0  0  0  0  0  0
   12.8334   -1.4208   22.4429 C   0  0  0  0  0  0  0  0  0  0  0  0
    6.9766   -5.4998   26.2563 C   0  0  0  0  0  0  0  0  0  0  0  0
    7.2132   -2.9715   26.1661 C   0  0  0  0  0  0  0  0  0  0  0  0
    9.0627   -4.4370   25.4620 C   0  0  0  0  0  0  0  0  0  0  0  0
    7.4863   -2.0865   24.9486 C   0  0  0  0  0  0  0  0  0  0  0  0
    9.2962   -3.5282   24.2557 C   0  0  0  0  0  0  0  0  0  0  0  0
    8.5332   -0.9584   20.9175 C   0  0  0  0  0  0  0  0  0  0  0  0
    5.4725   -5.4076   26.2005 C   0  0  0  0  0  0  0  0  0  0  0  0
    8.5612   -1.8949   22.1368 C   0  0  0  0  0  0  0  0  0  0  0  0
    9.1600   -1.2727   23.4167 C   0  0  1  0  0  0  0  0  0  0  0  0
    7.6843   -4.3411   25.9398 N   0  0  0  0  0  0  0  0  0  0  0  0
    8.9036   -2.1450   24.5620 N   0  0  0  0  0  0  0  0  0  0  0  0
    7.5048   -6.5702   26.5677 O   0  0  0  0  0  0  0  0  0  0  0  0
   13.8608   -2.3500   21.4217 Cl  0  0  0  0  0  0  0  0  0  0  0  0
    5.0576   -4.9326   24.5573 Cl  0  0  0  0  0  0  0  0  0  0  0  0
    6.1804    3.8167   21.7199 H   0  0  0  0  0  0  0  0  0  0  0  0
    4.8326    1.8855   20.9398 H   0  0  0  0  0  0  0  0  0  0  0  0
    8.6128    3.5469   22.1299 H   0  0  0  0  0  0  0  0  0  0  0  0
   12.9444    1.1868   24.6225 H   0  0  0  0  0  0  0  0  0  0  0  0
    5.9081   -0.3103   20.5701 H   0  0  0  0  0  0  0  0  0  0  0  0
    9.6977    1.3556   21.7632 H   0  0  0  0  0  0  0  0  0  0  0  0
   10.5281    0.6766   24.7482 H   0  0  0  0  0  0  0  0  0  0  0  0
   14.4240   -0.1409   23.1588 H   0  0  0  0  0  0  0  0  0  0  0  0
   11.0522   -2.5225   21.9213 H   0  0  0  0  0  0  0  0  0  0  0  0
    7.7484   -2.5905   27.0447 H   0  0  0  0  0  0  0  0  0  0  0  0
    6.1470   -2.9425   26.3994 H   0  0  0  0  0  0  0  0  0  0  0  0
    9.3108   -5.4707   25.1996 H   0  0  0  0  0  0  0  0  0  0  0  0
    9.7147   -4.1466   26.2951 H   0  0  0  0  0  0  0  0  0  0  0  0
    6.8385   -2.3950   24.1172 H   0  0  0  0  0  0  0  0  0  0  0  0
    7.2164   -1.0555   25.2075 H   0  0  0  0  0  0  0  0  0  0  0  0
   10.3629   -3.5624   24.0028 H   0  0  0  0  0  0  0  0  0  0  0  0
    8.7419   -3.9135   23.3895 H   0  0  0  0  0  0  0  0  0  0  0  0
    9.5670   -0.7627   20.6029 H   0  0  0  0  0  0  0  0  0  0  0  0
    8.0619   -1.4782   20.0738 H   0  0  0  0  0  0  0  0  0  0  0  0
    5.1406   -4.6505   26.9018 H   0  0  0  0  0  0  0  0  0  0  0  0
    5.0523   -6.3814   26.4240 H   0  0  0  0  0  0  0  0  0  0  0  0
    9.0557   -2.8422   21.8908 H   0  0  0  0  0  0  0  0  0  0  0  0
    7.5162   -2.1593   22.3527 H   0  0  0  0  0  0  0  0  0  0  0  0
    8.6027   -0.3532   23.6354 H   0  0  0  0  0  0  0  0  0  0  0  0
  1  2  1  0  0  0  0
  1  3  2  0  0  0  0
  1 27  1  0  0  0  0
  2  5  2  0  0  0  0
  2 28  1  0  0  0  0
  3  6  1  0  0  0  0
  3 29  1  0  0  0  0
  4  7  2  0  0  0  0
  4  8  1  0  0  0  0
  4 30  1  0  0  0  0
  5 10  1  0  0  0  0
  5 31  1  0  0  0  0
  6 10  2  0  0  0  0
  6 32  1  0  0  0  0
  7 11  1  0  0  0  0
  7 33  1  0  0  0  0
  8 12  2  0  0  0  0
  8 34  1  0  0  0  0
  9 11  2  0  0  0  0
  9 12  1  0  0  0  0
  9 35  1  0  0  0  0
 10 18  1  0  0  0  0
 11 21  1  0  0  0  0
 12 25  1  0  0  0  0
 13 19  1  0  0  0  0
 13 22  1  0  0  0  0
 13 24  2  0  0  0  0
 14 16  1  0  0  0  0
 14 22  1  0  0  0  0
 14 36  1  0  0  0  0
 14 37  1  0  0  0  0
 15 17  1  0  0  0  0
 15 22  1  0  0  0  0
 15 38  1  0  0  0  0
 15 39  1  0  0  0  0
 16 23  1  0  0  0  0
 16 40  1  0  0  0  0
 16 41  1  0  0  0  0
 17 23  1  0  0  0  0
 17 42  1  0  0  0  0
 17 43  1  0  0  0  0
 18 20  1  0  0  0  0
 18 44  1  0  0  0  0
 18 45  1  0  0  0  0
 19 26  1  0  0  0  0
 19 46  1  0  0  0  0
 19 47  1  0  0  0  0
 20 21  1  0  0  0  0
 20 48  1  0  0  0  0
 20 49  1  0  0  0  0
 21 23  1  0  0  0  0
 21 50  1  1  0  0  0
M  END
>  <Chemgauss4 Score>
-5.03277826309204

>  <Number of Confs>
187

$$$$
