CHR-SOS-b30-7
 OpenBabel03242009303D

 44 46  0  0  0  0  0  0  0  0999 V2000
    9.7371   -3.0594   25.9972 C   0  0  0  0  0  0  0  0  0  0  0  0
   10.2731   -2.4314   25.1249 C   0  0  0  0  0  0  0  0  0  0  0  0
    6.8317   -6.1163   21.6900 C   0  0  0  0  0  0  0  0  0  0  0  0
    7.6645   -5.0180   21.8720 C   0  0  0  0  0  0  0  0  0  0  0  0
    8.8160   -3.2362   28.2613 C   0  0  0  0  0  0  0  0  0  0  0  0
    5.7701   -6.2775   22.5656 C   0  0  0  0  0  0  0  0  0  0  0  0
    8.1965   -4.0629   29.1762 C   0  0  0  0  0  0  0  0  0  0  0  0
    6.3261   -4.3769   23.7305 C   0  0  0  0  0  0  0  0  0  0  0  0
    8.1972   -5.7868   27.6946 C   0  0  0  0  0  0  0  0  0  0  0  0
    9.0969   -3.8059   27.0362 C   0  0  0  0  0  0  0  0  0  0  0  0
    7.4139   -4.1268   22.9095 C   0  0  0  0  0  0  0  0  0  0  0  0
    9.3629   -2.6211   22.3839 C   0  0  0  0  0  0  0  0  0  0  0  0
   13.5066   -0.3766   23.0629 C   0  0  0  0  0  0  0  0  0  0  0  0
   12.3684    0.4805   23.6051 C   0  0  0  0  0  0  0  0  0  0  0  0
   12.9899   -1.6679   22.4387 C   0  0  0  0  0  0  0  0  0  0  0  0
   11.4924   -0.2991   24.5883 C   0  0  0  0  0  0  0  0  0  0  0  0
   12.1172   -2.4585   23.4162 C   0  0  0  0  0  0  0  0  0  0  0  0
   10.9586   -1.6265   24.0075 C   0  0  0  0  0  0  0  0  0  0  0  0
    9.9491   -1.3492   22.9586 C   0  0  0  0  0  0  0  0  0  0  0  0
    5.4948   -5.4330   23.5848 N   0  0  0  0  0  0  0  0  0  0  0  0
    7.8715   -5.3481   28.9254 N   0  0  0  0  0  0  0  0  0  0  0  0
    8.8004   -5.0830   26.7177 N   0  0  0  0  0  0  0  0  0  0  0  0
    8.2439   -3.0001   23.1200 N   0  0  0  0  0  0  0  0  0  0  0  0
    9.8435   -3.1921   21.4106 O   0  0  0  0  0  0  0  0  0  0  0  0
    7.0081   -6.8239   20.8879 H   0  0  0  0  0  0  0  0  0  0  0  0
    8.5053   -4.8661   21.2003 H   0  0  0  0  0  0  0  0  0  0  0  0
    9.0603   -2.2093   28.5030 H   0  0  0  0  0  0  0  0  0  0  0  0
    5.0918   -7.1185   22.4666 H   0  0  0  0  0  0  0  0  0  0  0  0
    7.9364   -3.7038   30.1662 H   0  0  0  0  0  0  0  0  0  0  0  0
    6.0792   -3.7172   24.5570 H   0  0  0  0  0  0  0  0  0  0  0  0
    7.9476   -6.8159   27.4667 H   0  0  0  0  0  0  0  0  0  0  0  0
   14.0665    0.1936   22.3110 H   0  0  0  0  0  0  0  0  0  0  0  0
   14.2080   -0.6123   23.8710 H   0  0  0  0  0  0  0  0  0  0  0  0
   12.7801    1.3706   24.0964 H   0  0  0  0  0  0  0  0  0  0  0  0
   11.7524    0.8387   22.7722 H   0  0  0  0  0  0  0  0  0  0  0  0
   12.4090   -1.4318   21.5397 H   0  0  0  0  0  0  0  0  0  0  0  0
   13.8370   -2.2834   22.1125 H   0  0  0  0  0  0  0  0  0  0  0  0
   12.0656   -0.4825   25.5067 H   0  0  0  0  0  0  0  0  0  0  0  0
   10.6459    0.3405   24.8729 H   0  0  0  0  0  0  0  0  0  0  0  0
   11.7070   -3.3265   22.8825 H   0  0  0  0  0  0  0  0  0  0  0  0
   12.7532   -2.8582   24.2169 H   0  0  0  0  0  0  0  0  0  0  0  0
   10.4263   -0.7789   22.1623 H   0  0  0  0  0  0  0  0  0  0  0  0
    9.1520   -0.7490   23.3963 H   0  0  0  0  0  0  0  0  0  0  0  0
    7.9806   -2.4063   23.9038 H   0  0  0  0  0  0  0  0  0  0  0  0
  1  2  3  0  0  0  0
  1 10  1  0  0  0  0
  2 18  1  0  0  0  0
  3  4  2  0  0  0  0
  3  6  1  0  0  0  0
  3 25  1  0  0  0  0
  4 11  1  0  0  0  0
  4 26  1  0  0  0  0
  5  7  2  0  0  0  0
  5 10  1  0  0  0  0
  5 27  1  0  0  0  0
  6 20  2  0  0  0  0
  6 28  1  0  0  0  0
  7 21  1  0  0  0  0
  7 29  1  0  0  0  0
  8 11  2  0  0  0  0
  8 20  1  0  0  0  0
  8 30  1  0  0  0  0
  9 21  2  0  0  0  0
  9 22  1  0  0  0  0
  9 31  1  0  0  0  0
 10 22  2  0  0  0  0
 11 23  1  0  0  0  0
 12 19  1  0  0  0  0
 12 23  1  0  0  0  0
 12 24  2  0  0  0  0
 13 14  1  0  0  0  0
 13 15  1  0  0  0  0
 13 32  1  0  0  0  0
 13 33  1  0  0  0  0
 14 16  1  0  0  0  0
 14 34  1  0  0  0  0
 14 35  1  0  0  0  0
 15 17  1  0  0  0  0
 15 36  1  0  0  0  0
 15 37  1  0  0  0  0
 16 18  1  0  0  0  0
 16 38  1  0  0  0  0
 16 39  1  0  0  0  0
 17 18  1  0  0  0  0
 17 40  1  0  0  0  0
 17 41  1  0  0  0  0
 18 19  1  0  0  0  0
 19 42  1  0  0  0  0
 19 43  1  0  0  0  0
 23 44  1  0  0  0  0
M  END
>  <Chemgauss4 Score>
-4.79012489318848

>  <Number of Confs>
77

$$$$
