DUN-NEW-f8c-2
 OpenBabel03242009303D

 50 52  0  0  1  0  0  0  0  0999 V2000
    5.2846   -5.3060   22.5032 C   0  0  0  0  0  0  0  0  0  0  0  0
    5.4850   -6.3207   23.4391 C   0  0  0  0  0  0  0  0  0  0  0  0
    5.8228   -4.0380   22.7232 C   0  0  0  0  0  0  0  0  0  0  0  0
    6.2236   -6.0674   24.5950 C   0  0  0  0  0  0  0  0  0  0  0  0
    6.5614   -3.7848   23.8791 C   0  0  0  0  0  0  0  0  0  0  0  0
    6.7618   -4.7995   24.8150 C   0  0  0  0  0  0  0  0  0  0  0  0
    9.7672   -5.1993   25.3853 C   0  0  0  0  0  0  0  0  0  0  0  0
   12.3522   -0.6711   23.4659 C   0  0  0  0  0  0  0  0  0  0  0  0
    7.8327   -4.0080   28.2207 C   0  0  0  0  0  0  0  0  0  0  0  0
    9.1040   -4.6553   27.6976 C   0  0  0  0  0  0  0  0  0  0  0  0
    7.1104   -3.5621   26.9553 C   0  0  0  0  0  0  0  0  0  0  0  0
   10.7358   -2.5742   22.9950 C   0  0  0  0  0  0  0  0  0  0  0  0
   10.5838   -1.2783   25.0835 C   0  0  0  0  0  0  0  0  0  0  0  0
    9.2113   -2.5186   22.8807 C   0  0  0  0  0  0  0  0  0  0  0  0
    9.0640   -1.2422   24.9262 C   0  0  0  0  0  0  0  0  0  0  0  0
    8.6681   -5.3266   26.3913 C   0  0  1  0  0  0  0  0  0  0  0  0
    7.1289   -2.4109   24.0900 C   0  0  0  0  0  0  0  0  0  0  0  0
   13.0653   -1.0123   22.1819 C   0  0  0  0  0  0  0  0  0  0  0  0
    7.4903   -4.5666   25.9648 N   0  0  0  0  0  0  0  0  0  0  0  0
   11.2469   -1.4555   23.7925 N   0  0  0  0  0  0  0  0  0  0  0  0
    8.5862   -2.4332   24.2088 N   0  0  0  0  0  0  0  0  0  0  0  0
    9.4691   -5.7579   24.1648 N   0  0  0  0  0  0  0  0  0  0  0  0
   10.8245   -4.6288   25.6421 O   0  0  0  0  0  0  0  0  0  0  0  0
   12.7634    0.2663   24.1544 O   0  0  0  0  0  0  0  0  0  0  0  0
   14.3776    0.1479   22.0109 Cl  0  0  0  0  0  0  0  0  0  0  0  0
    4.7095   -5.5033   21.6033 H   0  0  0  0  0  0  0  0  0  0  0  0
    5.0660   -7.3079   23.2676 H   0  0  0  0  0  0  0  0  0  0  0  0
    5.6609   -3.2543   21.9878 H   0  0  0  0  0  0  0  0  0  0  0  0
    6.3732   -6.8660   25.3172 H   0  0  0  0  0  0  0  0  0  0  0  0
    7.2328   -4.6980   28.8215 H   0  0  0  0  0  0  0  0  0  0  0  0
    8.0767   -3.1377   28.8415 H   0  0  0  0  0  0  0  0  0  0  0  0
    9.9044   -3.9200   27.5610 H   0  0  0  0  0  0  0  0  0  0  0  0
    9.4511   -5.4164   28.4082 H   0  0  0  0  0  0  0  0  0  0  0  0
    6.0247   -3.5693   27.1185 H   0  0  0  0  0  0  0  0  0  0  0  0
    7.4113   -2.5557   26.6425 H   0  0  0  0  0  0  0  0  0  0  0  0
   11.0488   -3.4963   23.5003 H   0  0  0  0  0  0  0  0  0  0  0  0
   11.1706   -2.5907   21.9937 H   0  0  0  0  0  0  0  0  0  0  0  0
   10.9267   -0.3607   25.5726 H   0  0  0  0  0  0  0  0  0  0  0  0
   10.8854   -2.1194   25.7200 H   0  0  0  0  0  0  0  0  0  0  0  0
    8.9206   -1.6654   22.2533 H   0  0  0  0  0  0  0  0  0  0  0  0
    8.8728   -3.4288   22.3711 H   0  0  0  0  0  0  0  0  0  0  0  0
    8.6170   -1.2094   25.9271 H   0  0  0  0  0  0  0  0  0  0  0  0
    8.7679   -0.3220   24.4052 H   0  0  0  0  0  0  0  0  0  0  0  0
    8.4768   -6.3949   26.5610 H   0  0  0  0  0  0  0  0  0  0  0  0
    6.8687   -1.7531   23.2536 H   0  0  0  0  0  0  0  0  0  0  0  0
    6.7258   -1.9547   25.0002 H   0  0  0  0  0  0  0  0  0  0  0  0
   12.3699   -0.9121   21.3563 H   0  0  0  0  0  0  0  0  0  0  0  0
   13.4643   -2.0173   22.2580 H   0  0  0  0  0  0  0  0  0  0  0  0
    8.5635   -6.1980   24.0388 H   0  0  0  0  0  0  0  0  0  0  0  0
   10.1185   -5.7478   23.3850 H   0  0  0  0  0  0  0  0  0  0  0  0
  1  2  1  0  0  0  0
  1  3  2  0  0  0  0
  1 26  1  0  0  0  0
  2  4  2  0  0  0  0
  2 27  1  0  0  0  0
  3  5  1  0  0  0  0
  3 28  1  0  0  0  0
  4  6  1  0  0  0  0
  4 29  1  0  0  0  0
  5  6  2  0  0  0  0
  5 17  1  0  0  0  0
  6 19  1  0  0  0  0
  7 16  1  0  0  0  0
  7 22  1  0  0  0  0
  7 23  2  0  0  0  0
  8 18  1  0  0  0  0
  8 20  1  0  0  0  0
  8 24  2  0  0  0  0
  9 10  1  0  0  0  0
  9 11  1  0  0  0  0
  9 30  1  0  0  0  0
  9 31  1  0  0  0  0
 10 16  1  0  0  0  0
 10 32  1  0  0  0  0
 10 33  1  0  0  0  0
 11 19  1  0  0  0  0
 11 34  1  0  0  0  0
 11 35  1  0  0  0  0
 12 14  1  0  0  0  0
 12 20  1  0  0  0  0
 12 36  1  0  0  0  0
 12 37  1  0  0  0  0
 13 15  1  0  0  0  0
 13 20  1  0  0  0  0
 13 38  1  0  0  0  0
 13 39  1  0  0  0  0
 14 21  1  0  0  0  0
 14 40  1  0  0  0  0
 14 41  1  0  0  0  0
 15 21  1  0  0  0  0
 15 42  1  0  0  0  0
 15 43  1  0  0  0  0
 16 19  1  0  0  0  0
 16 44  1  1  0  0  0
 17 21  1  0  0  0  0
 17 45  1  0  0  0  0
 17 46  1  0  0  0  0
 18 25  1  0  0  0  0
 18 47  1  0  0  0  0
 18 48  1  0  0  0  0
 22 49  1  0  0  0  0
 22 50  1  0  0  0  0
M  END
>  <Chemgauss4 Score>
-5.22319030761719

>  <Number of Confs>
200

$$$$
