ADA-UNI-f8e-12
 OpenBabel03242009303D

 40 42  0  0  1  0  0  0  0  0999 V2000
   12.8954   -1.4917   22.4950 C   0  0  0  0  0  0  0  0  0  0  0  0
    7.6668   -4.1579   28.8533 C   0  0  0  0  0  0  0  0  0  0  0  0
   11.5905   -1.9841   22.4761 C   0  0  0  0  0  0  0  0  0  0  0  0
    7.9667   -3.2774   27.8198 C   0  0  0  0  0  0  0  0  0  0  0  0
   13.2687   -0.5415   23.4455 C   0  0  0  0  0  0  0  0  0  0  0  0
   11.0320   -0.5758   24.3582 C   0  0  0  0  0  0  0  0  0  0  0  0
    7.7503   -5.5162   28.5930 C   0  0  0  0  0  0  0  0  0  0  0  0
    8.3896   -5.1506   26.4168 C   0  0  0  0  0  0  0  0  0  0  0  0
   10.6588   -1.5261   23.4077 C   0  0  0  0  0  0  0  0  0  0  0  0
    8.3359   -3.7752   26.5751 C   0  0  0  0  0  0  0  0  0  0  0  0
   12.3370   -0.0835   24.3770 C   0  0  0  0  0  0  0  0  0  0  0  0
    9.0272   -3.2526   24.2143 C   0  0  0  0  0  0  0  0  0  0  0  0
    8.1302   -1.0385   23.2907 C   0  0  0  0  0  0  0  0  0  0  0  0
    8.4666   -1.8760   22.0960 C   0  0  1  0  0  0  0  0  0  0  0  0
    9.2648   -2.0524   23.3871 C   0  0  1  0  0  0  0  0  0  0  0  0
    5.9444   -4.6166   22.2491 C   0  0  0  0  0  0  0  0  0  0  0  0
    7.5010   -2.9044   21.6120 C   0  0  0  0  0  0  0  0  0  0  0  0
    8.1053   -6.0371   27.3970 N   0  0  0  0  0  0  0  0  0  0  0  0
    8.6466   -2.9042   25.5040 N   0  0  0  0  0  0  0  0  0  0  0  0
    6.8875   -3.5968   22.7112 N   0  0  0  0  0  0  0  0  0  0  0  0
    9.1670   -4.3771   23.7444 O   0  0  0  0  0  0  0  0  0  0  0  0
   12.7982    1.0889   25.5495 Cl  0  0  0  0  0  0  0  0  0  0  0  0
   13.6208   -1.8483   21.7696 H   0  0  0  0  0  0  0  0  0  0  0  0
    7.3768   -3.7922   29.8318 H   0  0  0  0  0  0  0  0  0  0  0  0
   11.3096   -2.7243   21.7315 H   0  0  0  0  0  0  0  0  0  0  0  0
    7.9097   -2.2064   27.9951 H   0  0  0  0  0  0  0  0  0  0  0  0
   14.2891   -0.1669   23.4482 H   0  0  0  0  0  0  0  0  0  0  0  0
   10.3022   -0.2216   25.0828 H   0  0  0  0  0  0  0  0  0  0  0  0
    7.5256   -6.2441   29.3655 H   0  0  0  0  0  0  0  0  0  0  0  0
    8.6714   -5.5991   25.4687 H   0  0  0  0  0  0  0  0  0  0  0  0
    8.3768    0.0168   23.2489 H   0  0  0  0  0  0  0  0  0  0  0  0
    7.2089   -1.2445   23.8243 H   0  0  0  0  0  0  0  0  0  0  0  0
    8.9551   -1.3811   21.2629 H   0  0  0  0  0  0  0  0  0  0  0  0
    6.4696   -5.3377   21.6056 H   0  0  0  0  0  0  0  0  0  0  0  0
    5.5185   -5.1418   23.1167 H   0  0  0  0  0  0  0  0  0  0  0  0
    5.1362   -4.1365   21.6780 H   0  0  0  0  0  0  0  0  0  0  0  0
    6.7190   -2.4101   21.0172 H   0  0  0  0  0  0  0  0  0  0  0  0
    8.0363   -3.6309   20.9833 H   0  0  0  0  0  0  0  0  0  0  0  0
    8.5789   -1.9109   25.7162 H   0  0  0  0  0  0  0  0  0  0  0  0
    6.3790   -2.9351   23.3087 H   0  0  0  0  0  0  0  0  0  0  0  0
  1  3  2  0  0  0  0
  1  5  1  0  0  0  0
  1 23  1  0  0  0  0
  2  4  2  0  0  0  0
  2  7  1  0  0  0  0
  2 24  1  0  0  0  0
  3  9  1  0  0  0  0
  3 25  1  0  0  0  0
  4 10  1  0  0  0  0
  4 26  1  0  0  0  0
  5 11  2  0  0  0  0
  5 27  1  0  0  0  0
  6  9  2  0  0  0  0
  6 11  1  0  0  0  0
  6 28  1  0  0  0  0
  7 18  2  0  0  0  0
  7 29  1  0  0  0  0
  8 10  2  0  0  0  0
  8 18  1  0  0  0  0
  8 30  1  0  0  0  0
  9 15  1  0  0  0  0
 10 19  1  0  0  0  0
 11 22  1  0  0  0  0
 12 19  1  0  0  0  0
 12 21  2  0  0  0  0
 13 14  1  0  0  0  0
 13 15  1  0  0  0  0
 13 31  1  0  0  0  0
 13 32  1  0  0  0  0
 14 15  1  0  0  0  0
 14 17  1  0  0  0  0
 14 33  1  6  0  0  0
 15 12  1  1  0  0  0
 16 20  1  0  0  0  0
 16 34  1  0  0  0  0
 16 35  1  0  0  0  0
 16 36  1  0  0  0  0
 17 20  1  0  0  0  0
 17 37  1  0  0  0  0
 17 38  1  0  0  0  0
 19 39  1  0  0  0  0
 20 40  1  0  0  0  0
M  END
>  <Chemgauss4 Score>
-4.74039936065674

>  <Number of Confs>
131

$$$$
