ADA-UNI-f8e-12
 OpenBabel03242009303D

 40 42  0  0  1  0  0  0  0  0999 V2000
   12.7646   -2.4000   22.3368 C   0  0  0  0  0  0  0  0  0  0  0  0
    8.2550   -4.5402   28.9209 C   0  0  0  0  0  0  0  0  0  0  0  0
   11.4059   -2.6359   22.5461 C   0  0  0  0  0  0  0  0  0  0  0  0
    8.5313   -3.5861   27.9479 C   0  0  0  0  0  0  0  0  0  0  0  0
   13.3610   -1.2507   22.8556 C   0  0  0  0  0  0  0  0  0  0  0  0
   11.2398   -0.5731   23.7929 C   0  0  0  0  0  0  0  0  0  0  0  0
    8.0009   -5.8369   28.5041 C   0  0  0  0  0  0  0  0  0  0  0  0
    8.2781   -5.2758   26.2935 C   0  0  0  0  0  0  0  0  0  0  0  0
   10.6435   -1.7225   23.2741 C   0  0  0  0  0  0  0  0  0  0  0  0
    8.5450   -3.9528   26.6068 C   0  0  0  0  0  0  0  0  0  0  0  0
   12.5986   -0.3373   23.5836 C   0  0  0  0  0  0  0  0  0  0  0  0
    8.8701   -3.2213   24.2227 C   0  0  0  0  0  0  0  0  0  0  0  0
    8.2975   -0.7692   23.7601 C   0  0  0  0  0  0  0  0  0  0  0  0
    8.1732   -1.5015   22.4600 C   0  0  2  0  0  0  0  0  0  0  0  0
    9.1931   -1.9748   23.4973 C   0  0  1  0  0  0  0  0  0  0  0  0
    6.4725    0.0357   20.4179 C   0  0  0  0  0  0  0  0  0  0  0  0
    8.5728   -0.8344   21.1873 C   0  0  0  0  0  0  0  0  0  0  0  0
    8.0053   -6.2307   27.2108 N   0  0  0  0  0  0  0  0  0  0  0  0
    8.8227   -3.0043   25.5939 N   0  0  0  0  0  0  0  0  0  0  0  0
    7.7957    0.3519   20.9583 N   0  0  0  0  0  0  0  0  0  0  0  0
    8.6793   -4.2700   23.6155 O   0  0  0  0  0  0  0  0  0  0  0  0
   13.3350    1.0806   24.2235 Cl  0  0  0  0  0  0  0  0  0  0  0  0
   13.3582   -3.1112   21.7699 H   0  0  0  0  0  0  0  0  0  0  0  0
    8.2390   -4.2769   29.9724 H   0  0  0  0  0  0  0  0  0  0  0  0
   10.9507   -3.5344   22.1377 H   0  0  0  0  0  0  0  0  0  0  0  0
    8.7345   -2.5608   28.2455 H   0  0  0  0  0  0  0  0  0  0  0  0
   14.4208   -1.0801   22.6846 H   0  0  0  0  0  0  0  0  0  0  0  0
   10.6415    0.1365   24.3601 H   0  0  0  0  0  0  0  0  0  0  0  0
    7.7791   -6.6178   29.2240 H   0  0  0  0  0  0  0  0  0  0  0  0
    8.2745   -5.6227   25.2644 H   0  0  0  0  0  0  0  0  0  0  0  0
    8.7435    0.2192   23.7569 H   0  0  0  0  0  0  0  0  0  0  0  0
    7.4874   -0.8736   24.4736 H   0  0  0  0  0  0  0  0  0  0  0  0
    7.2872   -2.1113   22.3151 H   0  0  0  0  0  0  0  0  0  0  0  0
    5.9391   -0.6259   21.1164 H   0  0  0  0  0  0  0  0  0  0  0  0
    5.8997    0.9651   20.2835 H   0  0  0  0  0  0  0  0  0  0  0  0
    6.5842   -0.4697   19.4473 H   0  0  0  0  0  0  0  0  0  0  0  0
    9.6368   -0.5618   21.2443 H   0  0  0  0  0  0  0  0  0  0  0  0
    8.4170   -1.5330   20.3523 H   0  0  0  0  0  0  0  0  0  0  0  0
    9.0063   -2.0582   25.9213 H   0  0  0  0  0  0  0  0  0  0  0  0
    8.2760    0.9687   20.2932 H   0  0  0  0  0  0  0  0  0  0  0  0
  1  3  2  0  0  0  0
  1  5  1  0  0  0  0
  1 23  1  0  0  0  0
  2  4  2  0  0  0  0
  2  7  1  0  0  0  0
  2 24  1  0  0  0  0
  3  9  1  0  0  0  0
  3 25  1  0  0  0  0
  4 10  1  0  0  0  0
  4 26  1  0  0  0  0
  5 11  2  0  0  0  0
  5 27  1  0  0  0  0
  6  9  2  0  0  0  0
  6 11  1  0  0  0  0
  6 28  1  0  0  0  0
  7 18  2  0  0  0  0
  7 29  1  0  0  0  0
  8 10  2  0  0  0  0
  8 18  1  0  0  0  0
  8 30  1  0  0  0  0
  9 15  1  0  0  0  0
 10 19  1  0  0  0  0
 11 22  1  0  0  0  0
 12 19  1  0  0  0  0
 12 21  2  0  0  0  0
 13 14  1  0  0  0  0
 13 15  1  0  0  0  0
 13 31  1  0  0  0  0
 13 32  1  0  0  0  0
 14 15  1  0  0  0  0
 14 17  1  0  0  0  0
 14 33  1  6  0  0  0
 15 12  1  1  0  0  0
 16 20  1  0  0  0  0
 16 34  1  0  0  0  0
 16 35  1  0  0  0  0
 16 36  1  0  0  0  0
 17 20  1  0  0  0  0
 17 37  1  0  0  0  0
 17 38  1  0  0  0  0
 19 39  1  0  0  0  0
 20 40  1  0  0  0  0
M  END
>  <Chemgauss4 Score>
-4.64248466491699

>  <Number of Confs>
104

$$$$
