BAR-COM-21d-2
 OpenBabel03242009303D

 47 49  0  0  1  0  0  0  0  0999 V2000
   13.1862   -2.0540   23.5329 C   0  0  0  0  0  0  0  0  0  0  0  0
    5.1417    0.4853   19.5106 C   0  0  0  0  0  0  0  0  0  0  0  0
   12.4802   -2.7329   24.5261 C   0  0  0  0  0  0  0  0  0  0  0  0
   12.5007   -1.4513   22.4781 C   0  0  0  0  0  0  0  0  0  0  0  0
    6.3621    0.2216   20.1224 C   0  0  0  0  0  0  0  0  0  0  0  0
   10.4033   -2.2064   23.4096 C   0  0  0  0  0  0  0  0  0  0  0  0
    5.1220    0.6137   18.1311 C   0  0  0  0  0  0  0  0  0  0  0  0
    7.3838    0.2417   17.9748 C   0  0  0  0  0  0  0  0  0  0  0  0
   11.0888   -2.8091   24.4644 C   0  0  0  0  0  0  0  0  0  0  0  0
   11.1093   -1.5275   22.4164 C   0  0  0  0  0  0  0  0  0  0  0  0
    7.5094    0.0961   19.3470 C   0  0  0  0  0  0  0  0  0  0  0  0
    9.0290   -0.8877   21.1195 C   0  0  0  0  0  0  0  0  0  0  0  0
    6.6999   -5.6662   25.5231 C   0  0  0  0  0  0  0  0  0  0  0  0
    8.0755   -5.8122   26.1883 C   0  0  1  0  0  0  0  0  0  0  0  0
    8.0505   -4.2711   26.3537 C   0  0  1  0  0  0  0  0  0  0  0  0
    8.3223   -3.7247   27.7500 C   0  0  0  0  0  0  0  0  0  0  0  0
   10.3261   -3.5431   25.5383 C   0  0  0  0  0  0  0  0  0  0  0  0
    8.8198   -3.5048   25.2784 C   0  0  0  0  0  0  0  0  0  0  0  0
    6.2155    0.4983   17.3447 N   0  0  0  0  0  0  0  0  0  0  0  0
   10.4240   -0.9240   21.3616 N   0  0  0  0  0  0  0  0  0  0  0  0
    8.7654   -0.1718   19.9408 N   0  0  0  0  0  0  0  0  0  0  0  0
    6.5973   -4.3014   26.0624 N   0  3  0  0  0  0  0  0  0  0  0  0
    8.1816   -1.4075   21.8385 O   0  0  0  0  0  0  0  0  0  0  0  0
    8.1040   -6.6005   27.3940 O   0  0  0  0  0  0  0  0  0  0  0  0
   14.2696   -1.9943   23.5811 H   0  0  0  0  0  0  0  0  0  0  0  0
    4.2345    0.5871   20.0953 H   0  0  0  0  0  0  0  0  0  0  0  0
   13.0230   -3.1997   25.3434 H   0  0  0  0  0  0  0  0  0  0  0  0
   13.0612   -0.9250   21.7096 H   0  0  0  0  0  0  0  0  0  0  0  0
    6.4078    0.1158   21.2031 H   0  0  0  0  0  0  0  0  0  0  0  0
    9.3182   -2.2679   23.3632 H   0  0  0  0  0  0  0  0  0  0  0  0
    4.1952    0.8204   17.6062 H   0  0  0  0  0  0  0  0  0  0  0  0
    8.2433    0.1545   17.3168 H   0  0  0  0  0  0  0  0  0  0  0  0
    6.6986   -5.6968   24.4290 H   0  0  0  0  0  0  0  0  0  0  0  0
    5.9171   -6.3299   25.9086 H   0  0  0  0  0  0  0  0  0  0  0  0
    8.8364   -6.1742   25.4879 H   0  0  0  0  0  0  0  0  0  0  0  0
    8.2771   -2.6369   27.7360 H   0  0  0  0  0  0  0  0  0  0  0  0
    9.3112   -4.0362   28.0823 H   0  0  0  0  0  0  0  0  0  0  0  0
    7.5761   -4.1037   28.4465 H   0  0  0  0  0  0  0  0  0  0  0  0
   10.6692   -4.5845   25.5906 H   0  0  0  0  0  0  0  0  0  0  0  0
   10.5466   -3.1004   26.5183 H   0  0  0  0  0  0  0  0  0  0  0  0
    8.4643   -2.4685   25.2570 H   0  0  0  0  0  0  0  0  0  0  0  0
    8.5919   -3.9407   24.2992 H   0  0  0  0  0  0  0  0  0  0  0  0
   11.0080   -0.4427   20.6695 H   0  0  0  0  0  0  0  0  0  0  0  0
    9.5723    0.2024   19.4478 H   0  0  0  0  0  0  0  0  0  0  0  0
    6.2982   -3.6122   25.3572 H   0  0  0  0  0  0  0  0  0  0  0  0
    5.9891   -4.2177   26.8886 H   0  0  0  0  0  0  0  0  0  0  0  0
    7.7923   -7.4795   27.1416 H   0  0  0  0  0  0  0  0  0  0  0  0
  1  3  2  0  0  0  0
  1  4  1  0  0  0  0
  1 25  1  0  0  0  0
  2  5  2  0  0  0  0
  2  7  1  0  0  0  0
  2 26  1  0  0  0  0
  3  9  1  0  0  0  0
  3 27  1  0  0  0  0
  4 10  2  0  0  0  0
  4 28  1  0  0  0  0
  5 11  1  0  0  0  0
  5 29  1  0  0  0  0
  6  9  2  0  0  0  0
  6 10  1  0  0  0  0
  6 30  1  0  0  0  0
  7 19  2  0  0  0  0
  7 31  1  0  0  0  0
  8 11  2  0  0  0  0
  8 19  1  0  0  0  0
  8 32  1  0  0  0  0
  9 17  1  0  0  0  0
 10 20  1  0  0  0  0
 11 21  1  0  0  0  0
 12 20  1  0  0  0  0
 12 21  1  0  0  0  0
 12 23  2  0  0  0  0
 13 14  1  0  0  0  0
 13 22  1  0  0  0  0
 13 33  1  0  0  0  0
 13 34  1  0  0  0  0
 14 15  1  0  0  0  0
 14 24  1  0  0  0  0
 14 35  1  6  0  0  0
 15 16  1  1  0  0  0
 15 18  1  0  0  0  0
 15 22  1  0  0  0  0
 16 36  1  0  0  0  0
 16 37  1  0  0  0  0
 16 38  1  0  0  0  0
 17 18  1  0  0  0  0
 17 39  1  0  0  0  0
 17 40  1  0  0  0  0
 18 41  1  0  0  0  0
 18 42  1  0  0  0  0
 20 43  1  0  0  0  0
 21 44  1  0  0  0  0
 22 45  1  0  0  0  0
 22 46  1  0  0  0  0
 24 47  1  0  0  0  0
M  CHG  1  22   1
M  END
>  <Chemgauss4 Score>
-6.37596368789673

>  <Number of Confs>
121

$$$$
