SAL-INS-1c7-1
 OpenBabel03242009303D

 52 54  0  0  1  0  0  0  0  0999 V2000
   13.7825   -0.7968   21.8623 C   0  0  0  0  0  0  0  0  0  0  0  0
   12.7855   -1.7656   21.7486 C   0  0  0  0  0  0  0  0  0  0  0  0
   13.6019    0.2932   22.7139 C   0  0  0  0  0  0  0  0  0  0  0  0
    9.7582   -3.6219   26.1851 C   0  0  0  0  0  0  0  0  0  0  0  0
   11.6079   -1.6446   22.4863 C   0  0  0  0  0  0  0  0  0  0  0  0
   12.4243    0.4142   23.4516 C   0  0  0  0  0  0  0  0  0  0  0  0
   10.2405   -2.4036   25.7093 C   0  0  0  0  0  0  0  0  0  0  0  0
    7.9857   -3.5551   24.5495 C   0  0  0  0  0  0  0  0  0  0  0  0
    8.6304   -4.1966   25.6066 C   0  0  0  0  0  0  0  0  0  0  0  0
   11.4273   -0.5546   23.3379 C   0  0  0  0  0  0  0  0  0  0  0  0
    9.5983   -1.7462   24.6472 C   0  0  0  0  0  0  0  0  0  0  0  0
    8.4639   -2.3316   24.0561 C   0  0  0  0  0  0  0  0  0  0  0  0
    8.1247   -5.4661   26.1043 C   0  0  0  0  0  0  0  0  0  0  0  0
    8.2793   -0.0274   21.0646 C   0  0  0  0  0  0  0  0  0  0  0  0
    7.7337   -1.6754   22.9098 C   0  0  0  0  0  0  0  0  0  0  0  0
    9.0704    0.3653   23.3714 C   0  0  0  0  0  0  0  0  0  0  0  0
   10.1419   -0.4217   24.1434 C   0  0  2  0  0  0  0  0  0  0  0  0
    7.0283   -4.2189   29.2233 C   0  0  0  0  0  0  0  0  0  0  0  0
    5.1828   -4.1198   27.5115 C   0  0  0  0  0  0  0  0  0  0  0  0
    6.6063   -6.6894   27.6788 C   0  0  0  0  0  0  0  0  0  0  0  0
    7.4315   -0.8680   20.1422 C   0  0  0  0  0  0  0  0  0  0  0  0
    6.6836   -4.2219   27.7410 C   0  0  0  0  0  0  0  0  0  0  0  0
    8.3892   -0.4712   22.3844 N   0  0  0  0  0  0  0  0  0  0  0  0
    7.1712   -5.4608   27.1388 N   0  0  0  0  0  0  0  0  0  0  0  0
    8.5620   -6.4935   25.5691 O   0  0  0  0  0  0  0  0  0  0  0  0
    8.8305    0.9845   20.6243 O   0  0  0  0  0  0  0  0  0  0  0  0
    6.7209    0.2341   18.9686 Cl  0  0  0  0  0  0  0  0  0  0  0  0
   14.6999   -0.8919   21.2888 H   0  0  0  0  0  0  0  0  0  0  0  0
   12.9264   -2.6149   21.0864 H   0  0  0  0  0  0  0  0  0  0  0  0
   14.3783    1.0471   22.8035 H   0  0  0  0  0  0  0  0  0  0  0  0
   10.2698   -4.1126   27.0091 H   0  0  0  0  0  0  0  0  0  0  0  0
   10.8365   -2.4042   22.3912 H   0  0  0  0  0  0  0  0  0  0  0  0
   12.2923    1.2669   24.1125 H   0  0  0  0  0  0  0  0  0  0  0  0
   11.1211   -1.9655   26.1730 H   0  0  0  0  0  0  0  0  0  0  0  0
    7.1037   -4.0076   24.1002 H   0  0  0  0  0  0  0  0  0  0  0  0
    7.6119   -2.4095   22.1086 H   0  0  0  0  0  0  0  0  0  0  0  0
    6.7372   -1.3668   23.2485 H   0  0  0  0  0  0  0  0  0  0  0  0
    8.2947    0.7191   24.0634 H   0  0  0  0  0  0  0  0  0  0  0  0
    9.5043    1.2544   22.8998 H   0  0  0  0  0  0  0  0  0  0  0  0
   10.4037    0.2010   25.0427 H   0  0  0  0  0  0  0  0  0  0  0  0
    6.5360   -5.0493   29.7398 H   0  0  0  0  0  0  0  0  0  0  0  0
    8.1086   -4.3100   29.3829 H   0  0  0  0  0  0  0  0  0  0  0  0
    6.7037   -3.2854   29.6958 H   0  0  0  0  0  0  0  0  0  0  0  0
    4.6582   -4.9489   27.9990 H   0  0  0  0  0  0  0  0  0  0  0  0
    4.9487   -4.1525   26.4424 H   0  0  0  0  0  0  0  0  0  0  0  0
    4.7775   -3.1878   27.9213 H   0  0  0  0  0  0  0  0  0  0  0  0
    7.2256   -7.0408   28.5172 H   0  0  0  0  0  0  0  0  0  0  0  0
    5.5832   -6.4972   28.0341 H   0  0  0  0  0  0  0  0  0  0  0  0
    6.5830   -7.4586   26.8927 H   0  0  0  0  0  0  0  0  0  0  0  0
    6.6520   -1.3477   20.7225 H   0  0  0  0  0  0  0  0  0  0  0  0
    8.0675   -1.5877   19.6404 H   0  0  0  0  0  0  0  0  0  0  0  0
    7.1862   -3.3841   27.2455 H   0  0  0  0  0  0  0  0  0  0  0  0
  1  2  1  0  0  0  0
  1  3  2  0  0  0  0
  1 28  1  0  0  0  0
  2  5  2  0  0  0  0
  2 29  1  0  0  0  0
  3  6  1  0  0  0  0
  3 30  1  0  0  0  0
  4  7  2  0  0  0  0
  4  9  1  0  0  0  0
  4 31  1  0  0  0  0
  5 10  1  0  0  0  0
  5 32  1  0  0  0  0
  6 10  2  0  0  0  0
  6 33  1  0  0  0  0
  7 11  1  0  0  0  0
  7 34  1  0  0  0  0
  8  9  2  0  0  0  0
  8 12  1  0  0  0  0
  8 35  1  0  0  0  0
  9 13  1  0  0  0  0
 10 17  1  0  0  0  0
 11 12  2  0  0  0  0
 11 17  1  0  0  0  0
 12 15  1  0  0  0  0
 13 24  1  0  0  0  0
 13 25  2  0  0  0  0
 14 21  1  0  0  0  0
 14 23  1  0  0  0  0
 14 26  2  0  0  0  0
 15 23  1  0  0  0  0
 15 36  1  0  0  0  0
 15 37  1  0  0  0  0
 16 17  1  0  0  0  0
 16 23  1  0  0  0  0
 16 38  1  0  0  0  0
 16 39  1  0  0  0  0
 17 40  1  1  0  0  0
 18 22  1  0  0  0  0
 18 41  1  0  0  0  0
 18 42  1  0  0  0  0
 18 43  1  0  0  0  0
 19 22  1  0  0  0  0
 19 44  1  0  0  0  0
 19 45  1  0  0  0  0
 19 46  1  0  0  0  0
 20 24  1  0  0  0  0
 20 47  1  0  0  0  0
 20 48  1  0  0  0  0
 20 49  1  0  0  0  0
 21 27  1  0  0  0  0
 21 50  1  0  0  0  0
 21 51  1  0  0  0  0
 22 24  1  0  0  0  0
 22 52  1  0  0  0  0
M  END
>  <Chemgauss4 Score>
-5.38314056396484

>  <Number of Confs>
80

$$$$
