DUN-NEW-f8c-3
 OpenBabel03242009303D

 47 49  0  0  1  0  0  0  0  0999 V2000
    5.6283   -3.1694   22.4252 C   0  0  0  0  0  0  0  0  0  0  0  0
    5.0553   -4.0554   23.3374 C   0  0  0  0  0  0  0  0  0  0  0  0
    6.8847   -2.6201   22.6814 C   0  0  0  0  0  0  0  0  0  0  0  0
    5.7384   -4.3920   24.5060 C   0  0  0  0  0  0  0  0  0  0  0  0
    7.5678   -2.9567   23.8500 C   0  0  0  0  0  0  0  0  0  0  0  0
    6.9947   -3.8426   24.7624 C   0  0  0  0  0  0  0  0  0  0  0  0
    7.0979   -2.7161   27.7624 C   0  0  0  0  0  0  0  0  0  0  0  0
   12.4442   -0.4142   24.0346 C   0  0  0  0  0  0  0  0  0  0  0  0
    8.6150   -5.4726   27.6605 C   0  0  0  0  0  0  0  0  0  0  0  0
    9.1837   -4.0616   27.7209 C   0  0  0  0  0  0  0  0  0  0  0  0
    8.0268   -5.5649   26.2564 C   0  0  0  0  0  0  0  0  0  0  0  0
    8.9133   -0.9266   24.1760 C   0  0  0  0  0  0  0  0  0  0  0  0
   10.0326   -3.0818   23.6083 C   0  0  0  0  0  0  0  0  0  0  0  0
   10.1533   -0.5150   24.9663 C   0  0  0  0  0  0  0  0  0  0  0  0
   11.2564   -2.6319   24.4061 C   0  0  0  0  0  0  0  0  0  0  0  0
    8.1993   -3.2356   26.8913 C   0  0  1  0  0  0  0  0  0  0  0  0
   13.6285   -1.1778   23.4982 C   0  0  0  0  0  0  0  0  0  0  0  0
    8.8265   -2.3931   24.0879 N   0  0  0  0  0  0  0  0  0  0  0  0
    7.6544   -4.1895   25.9261 N   0  0  0  0  0  0  0  0  0  0  0  0
   11.3459   -1.1708   24.4359 N   0  0  0  0  0  0  0  0  0  0  0  0
    6.1468   -1.9932   27.0819 N   0  0  0  0  0  0  0  0  0  0  0  0
    7.0586   -2.9418   28.9694 O   0  0  0  0  0  0  0  0  0  0  0  0
   12.4951    0.8169   24.0927 O   0  0  0  0  0  0  0  0  0  0  0  0
   13.3660   -1.3614   21.7679 Cl  0  0  0  0  0  0  0  0  0  0  0  0
    5.0966   -2.9078   21.5151 H   0  0  0  0  0  0  0  0  0  0  0  0
    4.0775   -4.4837   23.1374 H   0  0  0  0  0  0  0  0  0  0  0  0
    7.3209   -1.9306   21.9631 H   0  0  0  0  0  0  0  0  0  0  0  0
    5.2820   -5.0840   25.2092 H   0  0  0  0  0  0  0  0  0  0  0  0
    9.3783   -6.2345   27.8432 H   0  0  0  0  0  0  0  0  0  0  0  0
    7.8235   -5.5948   28.4091 H   0  0  0  0  0  0  0  0  0  0  0  0
    9.2829   -3.7124   28.7534 H   0  0  0  0  0  0  0  0  0  0  0  0
   10.1743   -4.0437   27.2508 H   0  0  0  0  0  0  0  0  0  0  0  0
    8.7855   -5.9403   25.5538 H   0  0  0  0  0  0  0  0  0  0  0  0
    7.1580   -6.2355   26.2176 H   0  0  0  0  0  0  0  0  0  0  0  0
    8.0132   -0.5319   24.6587 H   0  0  0  0  0  0  0  0  0  0  0  0
    8.9700   -0.4992   23.1703 H   0  0  0  0  0  0  0  0  0  0  0  0
   10.1700   -2.8608   22.5447 H   0  0  0  0  0  0  0  0  0  0  0  0
    9.9261   -4.1678   23.7046 H   0  0  0  0  0  0  0  0  0  0  0  0
   10.3116    0.5599   24.8941 H   0  0  0  0  0  0  0  0  0  0  0  0
   10.0192   -0.7749   26.0122 H   0  0  0  0  0  0  0  0  0  0  0  0
   11.1940   -2.9774   25.4391 H   0  0  0  0  0  0  0  0  0  0  0  0
   12.1612   -3.0506   23.9668 H   0  0  0  0  0  0  0  0  0  0  0  0
    8.7099   -2.3785   26.4318 H   0  0  0  0  0  0  0  0  0  0  0  0
   13.6635   -2.1501   23.9753 H   0  0  0  0  0  0  0  0  0  0  0  0
   14.5280   -0.6017   23.6801 H   0  0  0  0  0  0  0  0  0  0  0  0
    6.2542   -1.8683   26.0806 H   0  0  0  0  0  0  0  0  0  0  0  0
    5.3418   -1.5794   27.5407 H   0  0  0  0  0  0  0  0  0  0  0  0
  1  2  1  0  0  0  0
  1  3  2  0  0  0  0
  1 25  1  0  0  0  0
  2  4  2  0  0  0  0
  2 26  1  0  0  0  0
  3  5  1  0  0  0  0
  3 27  1  0  0  0  0
  4  6  1  0  0  0  0
  4 28  1  0  0  0  0
  5  6  2  0  0  0  0
  5 18  1  0  0  0  0
  6 19  1  0  0  0  0
  7 16  1  0  0  0  0
  7 21  1  0  0  0  0
  7 22  2  0  0  0  0
  8 17  1  0  0  0  0
  8 20  1  0  0  0  0
  8 23  2  0  0  0  0
  9 10  1  0  0  0  0
  9 11  1  0  0  0  0
  9 29  1  0  0  0  0
  9 30  1  0  0  0  0
 10 16  1  0  0  0  0
 10 31  1  0  0  0  0
 10 32  1  0  0  0  0
 11 19  1  0  0  0  0
 11 33  1  0  0  0  0
 11 34  1  0  0  0  0
 12 14  1  0  0  0  0
 12 18  1  0  0  0  0
 12 35  1  0  0  0  0
 12 36  1  0  0  0  0
 13 15  1  0  0  0  0
 13 18  1  0  0  0  0
 13 37  1  0  0  0  0
 13 38  1  0  0  0  0
 14 20  1  0  0  0  0
 14 39  1  0  0  0  0
 14 40  1  0  0  0  0
 15 20  1  0  0  0  0
 15 41  1  0  0  0  0
 15 42  1  0  0  0  0
 16 19  1  0  0  0  0
 16 43  1  6  0  0  0
 17 24  1  0  0  0  0
 17 44  1  0  0  0  0
 17 45  1  0  0  0  0
 21 46  1  0  0  0  0
 21 47  1  0  0  0  0
M  END
>  <Chemgauss4 Score>
-4.67653322219849

>  <Number of Confs>
137

$$$$
