CHR-SOS-6c4-13
 OpenBabel03242009303D

 48 50  0  0  0  0  0  0  0  0999 V2000
   10.0321   -3.3983   24.6170 C   0  0  0  0  0  0  0  0  0  0  0  0
   10.6443   -2.7743   23.7934 C   0  0  0  0  0  0  0  0  0  0  0  0
    5.7261    1.5448   19.6938 C   0  0  0  0  0  0  0  0  0  0  0  0
    5.3038    2.1104   20.8861 C   0  0  0  0  0  0  0  0  0  0  0  0
    6.9981    1.1041   22.0671 C   0  0  0  0  0  0  0  0  0  0  0  0
    9.1226   -3.8366   26.9248 C   0  0  0  0  0  0  0  0  0  0  0  0
    8.1091   -5.7182   26.3873 C   0  0  0  0  0  0  0  0  0  0  0  0
    9.3015   -4.1425   25.5963 C   0  0  0  0  0  0  0  0  0  0  0  0
    6.8458    0.7211   19.7248 C   0  0  0  0  0  0  0  0  0  0  0  0
    7.4997    0.4913   20.9302 C   0  0  0  0  0  0  0  0  0  0  0  0
    9.3923   -0.6540   22.1498 C   0  0  0  0  0  0  0  0  0  0  0  0
   14.0871   -1.0535   21.9009 C   0  0  0  0  0  0  0  0  0  0  0  0
   13.0801   -0.0967   22.5290 C   0  0  0  0  0  0  0  0  0  0  0  0
   13.3947   -2.2045   21.1803 C   0  0  0  0  0  0  0  0  0  0  0  0
   12.1165   -0.8288   23.4640 C   0  0  0  0  0  0  0  0  0  0  0  0
   12.4164   -2.9423   22.0964 C   0  0  0  0  0  0  0  0  0  0  0  0
   11.3972   -2.0070   22.7792 C   0  0  0  0  0  0  0  0  0  0  0  0
    7.3227    0.0978   18.4541 C   0  0  0  0  0  0  0  0  0  0  0  0
    7.8933   -4.9947   28.7771 C   0  0  0  0  0  0  0  0  0  0  0  0
    5.9131    1.9105   22.0762 N   0  0  0  0  0  0  0  0  0  0  0  0
    8.6679   -5.3148   25.2679 N   0  0  0  0  0  0  0  0  0  0  0  0
    8.3564   -4.8549   27.4182 N   0  0  0  0  0  0  0  0  0  0  0  0
    8.6425   -0.3381   21.0133 N   0  0  0  0  0  0  0  0  0  0  0  0
   10.4427   -1.5047   21.8073 N   0  0  0  0  0  0  0  0  0  0  0  0
    9.1870   -0.2604   23.2955 O   0  0  0  0  0  0  0  0  0  0  0  0
    5.1934    1.7441   18.7702 H   0  0  0  0  0  0  0  0  0  0  0  0
    4.4354    2.7603   20.9156 H   0  0  0  0  0  0  0  0  0  0  0  0
    7.4651    0.9637   23.0375 H   0  0  0  0  0  0  0  0  0  0  0  0
    9.4596   -3.0148   27.5421 H   0  0  0  0  0  0  0  0  0  0  0  0
    7.5195   -6.6164   26.5109 H   0  0  0  0  0  0  0  0  0  0  0  0
   14.7244   -0.5075   21.1962 H   0  0  0  0  0  0  0  0  0  0  0  0
   14.7453   -1.4545   22.6817 H   0  0  0  0  0  0  0  0  0  0  0  0
   13.6135    0.6793   23.0899 H   0  0  0  0  0  0  0  0  0  0  0  0
   12.5166    0.4154   21.7398 H   0  0  0  0  0  0  0  0  0  0  0  0
   12.8595   -1.8192   20.3041 H   0  0  0  0  0  0  0  0  0  0  0  0
   14.1469   -2.9083   20.8060 H   0  0  0  0  0  0  0  0  0  0  0  0
   12.6864   -1.1994   24.3279 H   0  0  0  0  0  0  0  0  0  0  0  0
   11.3893   -0.1146   23.8729 H   0  0  0  0  0  0  0  0  0  0  0  0
   11.9023   -3.7280   21.5266 H   0  0  0  0  0  0  0  0  0  0  0  0
   12.9991   -3.4689   22.8659 H   0  0  0  0  0  0  0  0  0  0  0  0
    8.0477    0.7534   17.9582 H   0  0  0  0  0  0  0  0  0  0  0  0
    7.7999   -0.8717   18.6429 H   0  0  0  0  0  0  0  0  0  0  0  0
    6.4887   -0.0857   17.7654 H   0  0  0  0  0  0  0  0  0  0  0  0
    6.9241   -4.4953   28.8562 H   0  0  0  0  0  0  0  0  0  0  0  0
    7.7975   -6.0563   29.0217 H   0  0  0  0  0  0  0  0  0  0  0  0
    8.6180   -4.5351   29.4550 H   0  0  0  0  0  0  0  0  0  0  0  0
    8.9516   -0.7529   20.1378 H   0  0  0  0  0  0  0  0  0  0  0  0
   10.5440   -1.7839   20.8403 H   0  0  0  0  0  0  0  0  0  0  0  0
  1  2  3  0  0  0  0
  1  8  1  0  0  0  0
  2 17  1  0  0  0  0
  3  4  2  0  0  0  0
  3  9  1  0  0  0  0
  3 26  1  0  0  0  0
  4 20  1  0  0  0  0
  4 27  1  0  0  0  0
  5 10  1  0  0  0  0
  5 20  2  0  0  0  0
  5 28  1  0  0  0  0
  6  8  2  0  0  0  0
  6 22  1  0  0  0  0
  6 29  1  0  0  0  0
  7 21  2  0  0  0  0
  7 22  1  0  0  0  0
  7 30  1  0  0  0  0
  8 21  1  0  0  0  0
  9 10  2  0  0  0  0
  9 18  1  0  0  0  0
 10 23  1  0  0  0  0
 11 23  1  0  0  0  0
 11 24  1  0  0  0  0
 11 25  2  0  0  0  0
 12 13  1  0  0  0  0
 12 14  1  0  0  0  0
 12 31  1  0  0  0  0
 12 32  1  0  0  0  0
 13 15  1  0  0  0  0
 13 33  1  0  0  0  0
 13 34  1  0  0  0  0
 14 16  1  0  0  0  0
 14 35  1  0  0  0  0
 14 36  1  0  0  0  0
 15 17  1  0  0  0  0
 15 37  1  0  0  0  0
 15 38  1  0  0  0  0
 16 17  1  0  0  0  0
 16 39  1  0  0  0  0
 16 40  1  0  0  0  0
 17 24  1  0  0  0  0
 18 41  1  0  0  0  0
 18 42  1  0  0  0  0
 18 43  1  0  0  0  0
 19 22  1  0  0  0  0
 19 44  1  0  0  0  0
 19 45  1  0  0  0  0
 19 46  1  0  0  0  0
 23 47  1  0  0  0  0
 24 48  1  0  0  0  0
M  END
>  <Chemgauss4 Score>
-5.50718688964844

>  <Number of Confs>
5

$$$$
