DAR-DIA-842-13
 OpenBabel03242009303D

 25 26  0  0  0  0  0  0  0  0999 V2000
    8.3388   -4.3623   28.7650 C   0  0  0  0  0  0  0  0  0  0  0  0
    8.4260   -3.4766   27.6967 C   0  0  0  0  0  0  0  0  0  0  0  0
   10.4977   -2.0314   22.3305 C   0  0  0  0  0  0  0  0  0  0  0  0
   11.8463   -1.7265   21.9861 C   0  0  0  0  0  0  0  0  0  0  0  0
    8.1444   -5.7043   28.4806 C   0  0  0  0  0  0  0  0  0  0  0  0
    8.1245   -5.3137   26.2167 C   0  0  0  0  0  0  0  0  0  0  0  0
    8.3177   -3.9533   26.3950 C   0  0  0  0  0  0  0  0  0  0  0  0
    9.9946   -1.1609   23.2722 C   0  0  0  0  0  0  0  0  0  0  0  0
   12.3225   -0.6342   22.6776 C   0  0  0  0  0  0  0  0  0  0  0  0
    8.5928   -1.6970   25.3095 C   0  0  0  0  0  0  0  0  0  0  0  0
    8.6228   -1.1426   23.8938 C   0  0  0  0  0  0  0  0  0  0  0  0
    8.0347   -6.2047   27.2295 N   0  0  0  0  0  0  0  0  0  0  0  0
    8.4008   -3.0903   25.3051 N   0  0  0  0  0  0  0  0  0  0  0  0
    8.7220   -0.9806   26.2970 O   0  0  0  0  0  0  0  0  0  0  0  0
   11.1460    0.0184   23.7370 S   0  0  0  0  0  0  0  0  0  0  0  0
   13.8786    0.0765   22.5764 Cl  0  0  0  0  0  0  0  0  0  0  0  0
    8.4203   -4.0130   29.7879 H   0  0  0  0  0  0  0  0  0  0  0  0
    8.5782   -2.4179   27.8896 H   0  0  0  0  0  0  0  0  0  0  0  0
    9.9290   -2.8492   21.9065 H   0  0  0  0  0  0  0  0  0  0  0  0
   12.4321   -2.2842   21.2663 H   0  0  0  0  0  0  0  0  0  0  0  0
    8.0688   -6.4354   29.2787 H   0  0  0  0  0  0  0  0  0  0  0  0
    8.0328   -5.7456   25.2245 H   0  0  0  0  0  0  0  0  0  0  0  0
    8.2399   -0.1142   23.9109 H   0  0  0  0  0  0  0  0  0  0  0  0
    7.9304   -1.7243   23.2722 H   0  0  0  0  0  0  0  0  0  0  0  0
    8.3104   -3.5274   24.3794 H   0  0  0  0  0  0  0  0  0  0  0  0
  1  2  2  0  0  0  0
  1  5  1  0  0  0  0
  1 17  1  0  0  0  0
  2  7  1  0  0  0  0
  2 18  1  0  0  0  0
  3  4  1  0  0  0  0
  3  8  2  0  0  0  0
  3 19  1  0  0  0  0
  4  9  2  0  0  0  0
  4 20  1  0  0  0  0
  5 12  2  0  0  0  0
  5 21  1  0  0  0  0
  6  7  2  0  0  0  0
  6 12  1  0  0  0  0
  6 22  1  0  0  0  0
  7 13  1  0  0  0  0
  8 11  1  0  0  0  0
  8 15  1  0  0  0  0
  9 15  1  0  0  0  0
  9 16  1  0  0  0  0
 10 11  1  0  0  0  0
 10 13  1  0  0  0  0
 10 14  2  0  0  0  0
 11 23  1  0  0  0  0
 11 24  1  0  0  0  0
 13 25  1  0  0  0  0
M  END
>  <Chemgauss4 Score>
-4.72160482406616

>  <Number of Confs>
79

$$$$
