ANT-DIA-3c7-3
 OpenBabel03242009303D

 41 43  0  0  0  0  0  0  0  0999 V2000
    6.8286   -2.1498   24.4171 C   0  0  0  0  0  0  0  0  0  0  0  0
    6.1493   -6.6263   25.7249 C   0  0  0  0  0  0  0  0  0  0  0  0
    8.1100   -1.3516   22.5102 C   0  0  0  0  0  0  0  0  0  0  0  0
    7.3824   -6.0860   26.0852 C   0  0  0  0  0  0  0  0  0  0  0  0
    9.3222   -1.1616   21.8468 C   0  0  0  0  0  0  0  0  0  0  0  0
   10.4914   -2.2085   23.6837 C   0  0  0  0  0  0  0  0  0  0  0  0
    5.0203   -6.2485   26.4393 C   0  0  0  0  0  0  0  0  0  0  0  0
    7.7990   -3.7122   28.8295 C   0  0  0  0  0  0  0  0  0  0  0  0
    8.0885   -1.9700   23.7603 C   0  0  0  0  0  0  0  0  0  0  0  0
    7.4137   -5.1823   27.1595 C   0  0  0  0  0  0  0  0  0  0  0  0
    8.4157   -4.4299   27.8274 C   0  0  0  0  0  0  0  0  0  0  0  0
   10.5129   -1.5901   22.4335 C   0  0  0  0  0  0  0  0  0  0  0  0
    9.2792   -2.3985   24.3470 C   0  0  0  0  0  0  0  0  0  0  0  0
    6.2059   -4.8920   27.7876 C   0  0  0  0  0  0  0  0  0  0  0  0
   10.1918   -3.9803   26.0820 C   0  0  0  0  0  0  0  0  0  0  0  0
   14.1166   -1.4779   21.3826 C   0  0  0  0  0  0  0  0  0  0  0  0
    9.8586   -4.4126   27.5142 C   0  0  0  0  0  0  0  0  0  0  0  0
   12.9947   -1.8131   22.3055 C   0  0  0  0  0  0  0  0  0  0  0  0
    5.8077   -2.2956   24.9494 N   0  0  0  0  0  0  0  0  0  0  0  0
    4.9910   -5.3845   27.4805 N   0  0  0  0  0  0  0  0  0  0  0  0
    6.4593   -4.0004   28.7964 N   0  0  0  0  0  0  0  0  0  0  0  0
    9.2903   -3.0272   25.6149 N   0  0  0  0  0  0  0  0  0  0  0  0
   11.7382   -1.3986   21.7623 N   0  0  0  0  0  0  0  0  0  0  0  0
   11.1483   -4.4565   25.4790 O   0  0  0  0  0  0  0  0  0  0  0  0
    6.0743   -7.3288   24.9018 H   0  0  0  0  0  0  0  0  0  0  0  0
    7.1906   -1.0115   22.0388 H   0  0  0  0  0  0  0  0  0  0  0  0
    8.2840   -6.3598   25.5469 H   0  0  0  0  0  0  0  0  0  0  0  0
    9.3271   -0.6782   20.8732 H   0  0  0  0  0  0  0  0  0  0  0  0
   11.4218   -2.5406   24.1399 H   0  0  0  0  0  0  0  0  0  0  0  0
    4.0501   -6.6591   26.1719 H   0  0  0  0  0  0  0  0  0  0  0  0
    8.1920   -3.0219   29.5632 H   0  0  0  0  0  0  0  0  0  0  0  0
   14.1431   -0.3908   21.2165 H   0  0  0  0  0  0  0  0  0  0  0  0
   15.0679   -1.8039   21.8284 H   0  0  0  0  0  0  0  0  0  0  0  0
   13.9667   -1.9919   20.4217 H   0  0  0  0  0  0  0  0  0  0  0  0
   10.4063   -3.7351   28.1985 H   0  0  0  0  0  0  0  0  0  0  0  0
   10.3107   -5.4114   27.6719 H   0  0  0  0  0  0  0  0  0  0  0  0
   12.9750   -2.9011   22.4663 H   0  0  0  0  0  0  0  0  0  0  0  0
   13.1560   -1.3032   23.2667 H   0  0  0  0  0  0  0  0  0  0  0  0
    5.7644   -3.6156   29.4211 H   0  0  0  0  0  0  0  0  0  0  0  0
    8.5535   -2.7505   26.2605 H   0  0  0  0  0  0  0  0  0  0  0  0
   11.7006   -0.9487   20.8670 H   0  0  0  0  0  0  0  0  0  0  0  0
  1  9  1  0  0  0  0
  1 19  3  0  0  0  0
  2  4  2  0  0  0  0
  2  7  1  0  0  0  0
  2 25  1  0  0  0  0
  3  5  2  0  0  0  0
  3  9  1  0  0  0  0
  3 26  1  0  0  0  0
  4 10  1  0  0  0  0
  4 27  1  0  0  0  0
  5 12  1  0  0  0  0
  5 28  1  0  0  0  0
  6 12  2  0  0  0  0
  6 13  1  0  0  0  0
  6 29  1  0  0  0  0
  7 20  2  0  0  0  0
  7 30  1  0  0  0  0
  8 11  2  0  0  0  0
  8 21  1  0  0  0  0
  8 31  1  0  0  0  0
  9 13  2  0  0  0  0
 10 11  1  0  0  0  0
 10 14  2  0  0  0  0
 11 17  1  0  0  0  0
 12 23  1  0  0  0  0
 13 22  1  0  0  0  0
 14 20  1  0  0  0  0
 14 21  1  0  0  0  0
 15 17  1  0  0  0  0
 15 22  1  0  0  0  0
 15 24  2  0  0  0  0
 16 18  1  0  0  0  0
 16 32  1  0  0  0  0
 16 33  1  0  0  0  0
 16 34  1  0  0  0  0
 17 35  1  0  0  0  0
 17 36  1  0  0  0  0
 18 23  1  0  0  0  0
 18 37  1  0  0  0  0
 18 38  1  0  0  0  0
 21 39  1  0  0  0  0
 22 40  1  0  0  0  0
 23 41  1  0  0  0  0
M  END
>  <Chemgauss4 Score>
-4.6068377494812

>  <Number of Confs>
200

$$$$
