NIM-UNI-36e-2
 OpenBabel03242009303D

 47 50  0  0  1  0  0  0  0  0999 V2000
   14.2644   -0.2190   22.8358 C   0  0  0  0  0  0  0  0  0  0  0  0
   13.7323   -1.1886   21.9859 C   0  0  0  0  0  0  0  0  0  0  0  0
   13.4545    0.3864   23.7967 C   0  0  0  0  0  0  0  0  0  0  0  0
    5.9120   -4.5606   29.1047 C   0  0  0  0  0  0  0  0  0  0  0  0
   12.3904   -1.5527   22.0967 C   0  0  0  0  0  0  0  0  0  0  0  0
   12.1125    0.0224   23.9075 C   0  0  0  0  0  0  0  0  0  0  0  0
    6.8713   -3.7117   28.5641 C   0  0  0  0  0  0  0  0  0  0  0  0
    5.8175   -5.8436   28.5903 C   0  0  0  0  0  0  0  0  0  0  0  0
    7.5210   -5.4662   27.0958 C   0  0  0  0  0  0  0  0  0  0  0  0
   11.5805   -0.9472   23.0575 C   0  0  0  0  0  0  0  0  0  0  0  0
    7.6952   -4.1654   27.5400 C   0  0  0  0  0  0  0  0  0  0  0  0
    9.3620   -2.2782   27.6601 C   0  0  0  0  0  0  0  0  0  0  0  0
    8.2522   -4.7655   23.7335 C   0  0  0  0  0  0  0  0  0  0  0  0
    7.4656   -2.4234   24.2438 C   0  0  0  0  0  0  0  0  0  0  0  0
    8.1770   -1.1150   24.5996 C   0  0  0  0  0  0  0  0  0  0  0  0
   10.1611   -2.2556   25.4258 C   0  0  2  0  0  0  0  0  0  0  0  0
    9.2515   -3.4930   25.6204 C   0  0  1  0  0  0  0  0  0  0  0  0
    7.3101   -4.7498   22.5547 C   0  0  0  0  0  0  0  0  0  0  0  0
   10.1359   -1.3384   23.1772 C   0  0  0  0  0  0  0  0  0  0  0  0
    6.6000   -6.3200   27.5962 N   0  0  0  0  0  0  0  0  0  0  0  0
   10.2712   -1.7056   26.7580 N   0  0  0  0  0  0  0  0  0  0  0  0
    8.6867   -3.3194   26.9660 N   0  0  0  0  0  0  0  0  0  0  0  0
    8.2854   -3.6083   24.5188 N   0  0  0  0  0  0  0  0  0  0  0  0
    9.6427   -1.1979   24.5461 N   0  0  0  0  0  0  0  0  0  0  0  0
    9.2426   -1.9252   28.8265 O   0  0  0  0  0  0  0  0  0  0  0  0
    8.9330   -5.7715   23.9479 O   0  0  0  0  0  0  0  0  0  0  0  0
   15.3096    0.0633   22.7503 H   0  0  0  0  0  0  0  0  0  0  0  0
   14.3630   -1.6610   21.2384 H   0  0  0  0  0  0  0  0  0  0  0  0
   13.8687    1.1406   24.4593 H   0  0  0  0  0  0  0  0  0  0  0  0
    5.2589   -4.2282   29.9036 H   0  0  0  0  0  0  0  0  0  0  0  0
   11.9844   -2.3090   21.4301 H   0  0  0  0  0  0  0  0  0  0  0  0
   11.4891    0.4996   24.6590 H   0  0  0  0  0  0  0  0  0  0  0  0
    6.9683   -2.6995   28.9478 H   0  0  0  0  0  0  0  0  0  0  0  0
    5.0848   -6.5440   28.9774 H   0  0  0  0  0  0  0  0  0  0  0  0
    8.1339   -5.8776   26.2993 H   0  0  0  0  0  0  0  0  0  0  0  0
    6.5123   -2.5276   24.8116 H   0  0  0  0  0  0  0  0  0  0  0  0
    7.1537   -2.3839   23.1792 H   0  0  0  0  0  0  0  0  0  0  0  0
    7.8055   -0.3021   23.9369 H   0  0  0  0  0  0  0  0  0  0  0  0
    7.8648   -0.8262   25.6250 H   0  0  0  0  0  0  0  0  0  0  0  0
   11.1735   -2.5877   25.0923 H   0  0  0  0  0  0  0  0  0  0  0  0
    9.8659   -4.3894   25.6623 H   0  0  0  0  0  0  0  0  0  0  0  0
    7.8349   -4.3662   21.6859 H   0  0  0  0  0  0  0  0  0  0  0  0
    6.4616   -4.1137   22.7861 H   0  0  0  0  0  0  0  0  0  0  0  0
    6.9643   -5.7605   22.3628 H   0  0  0  0  0  0  0  0  0  0  0  0
    9.5119   -0.7145   22.5281 H   0  0  0  0  0  0  0  0  0  0  0  0
    9.9840   -2.3790   22.8718 H   0  0  0  0  0  0  0  0  0  0  0  0
   10.9409   -0.9767   27.0141 H   0  0  0  0  0  0  0  0  0  0  0  0
  1  2  1  0  0  0  0
  1  3  2  0  0  0  0
  1 27  1  0  0  0  0
  2  5  2  0  0  0  0
  2 28  1  0  0  0  0
  3  6  1  0  0  0  0
  3 29  1  0  0  0  0
  4  7  2  0  0  0  0
  4  8  1  0  0  0  0
  4 30  1  0  0  0  0
  5 10  1  0  0  0  0
  5 31  1  0  0  0  0
  6 10  2  0  0  0  0
  6 32  1  0  0  0  0
  7 11  1  0  0  0  0
  7 33  1  0  0  0  0
  8 20  2  0  0  0  0
  8 34  1  0  0  0  0
  9 11  2  0  0  0  0
  9 20  1  0  0  0  0
  9 35  1  0  0  0  0
 10 19  1  0  0  0  0
 11 22  1  0  0  0  0
 12 21  1  0  0  0  0
 12 22  1  0  0  0  0
 12 25  2  0  0  0  0
 13 18  1  0  0  0  0
 13 23  1  0  0  0  0
 13 26  2  0  0  0  0
 14 15  1  0  0  0  0
 14 23  1  0  0  0  0
 14 36  1  0  0  0  0
 14 37  1  0  0  0  0
 15 24  1  0  0  0  0
 15 38  1  0  0  0  0
 15 39  1  0  0  0  0
 16 17  1  0  0  0  0
 16 21  1  0  0  0  0
 16 24  1  0  0  0  0
 16 40  1  6  0  0  0
 17 22  1  0  0  0  0
 17 23  1  0  0  0  0
 17 41  1  1  0  0  0
 18 42  1  0  0  0  0
 18 43  1  0  0  0  0
 18 44  1  0  0  0  0
 19 24  1  0  0  0  0
 19 45  1  0  0  0  0
 19 46  1  0  0  0  0
 21 47  1  0  0  0  0
M  END
>  <Chemgauss4 Score>
-4.7633695602417

>  <Number of Confs>
38

$$$$
