GIA-UNK-5ec-2
 OpenBabel03242009303D

 38 39  0  0  0  0  0  0  0  0999 V2000
    9.7005   -2.1511   23.1406 C   0  0  0  0  0  0  0  0  0  0  0  0
    8.1501   -5.2691   27.3488 C   0  0  0  0  0  0  0  0  0  0  0  0
   13.0551    0.4404   22.3123 C   0  0  0  0  0  0  0  0  0  0  0  0
   13.3155   -1.0590   22.4203 C   0  0  0  0  0  0  0  0  0  0  0  0
   12.0237    0.9059   23.3357 C   0  0  0  0  0  0  0  0  0  0  0  0
   12.0229   -1.8641   22.3159 C   0  0  0  0  0  0  0  0  0  0  0  0
   10.7281    0.1054   23.2338 C   0  0  0  0  0  0  0  0  0  0  0  0
    7.7303   -4.4461   25.0560 C   0  0  0  0  0  0  0  0  0  0  0  0
   10.0262   -4.2540   26.0800 C   0  0  0  0  0  0  0  0  0  0  0  0
    8.3439   -4.1457   23.6910 C   0  0  0  0  0  0  0  0  0  0  0  0
   10.5932   -3.9574   24.6931 C   0  0  0  0  0  0  0  0  0  0  0  0
   10.9835   -1.3998   23.3386 C   0  0  0  0  0  0  0  0  0  0  0  0
    8.7534   -5.1001   25.9886 C   0  0  0  0  0  0  0  0  0  0  0  0
    9.5686   -3.3555   23.8308 N   0  0  0  0  0  0  0  0  0  0  0  0
    8.8366   -1.6821   22.3951 O   0  0  0  0  0  0  0  0  0  0  0  0
    7.9902   -6.3544   27.8916 O   0  0  0  0  0  0  0  0  0  0  0  0
    7.6779   -3.7649   28.1265 S   0  0  0  0  0  0  0  0  0  0  0  0
   13.9943    0.9868   22.4642 H   0  0  0  0  0  0  0  0  0  0  0  0
   12.7058    0.6814   21.3018 H   0  0  0  0  0  0  0  0  0  0  0  0
   14.0060   -1.3659   21.6266 H   0  0  0  0  0  0  0  0  0  0  0  0
   13.8093   -1.2783   23.3727 H   0  0  0  0  0  0  0  0  0  0  0  0
   12.4386    0.8009   24.3448 H   0  0  0  0  0  0  0  0  0  0  0  0
   11.8185    1.9730   23.1906 H   0  0  0  0  0  0  0  0  0  0  0  0
   11.6295   -1.7879   21.3039 H   0  0  0  0  0  0  0  0  0  0  0  0
   12.2488   -2.9131   22.5072 H   0  0  0  0  0  0  0  0  0  0  0  0
   10.0658    0.4022   24.0489 H   0  0  0  0  0  0  0  0  0  0  0  0
   10.2267    0.3455   22.2960 H   0  0  0  0  0  0  0  0  0  0  0  0
    7.3491   -3.5223   25.4922 H   0  0  0  0  0  0  0  0  0  0  0  0
    6.8849   -5.1237   24.9227 H   0  0  0  0  0  0  0  0  0  0  0  0
   10.7740   -4.8001   26.6554 H   0  0  0  0  0  0  0  0  0  0  0  0
    9.8252   -3.3167   26.5963 H   0  0  0  0  0  0  0  0  0  0  0  0
    8.5446   -5.0844   23.1635 H   0  0  0  0  0  0  0  0  0  0  0  0
    7.6495   -3.5683   23.0687 H   0  0  0  0  0  0  0  0  0  0  0  0
   11.4221   -3.2436   24.7552 H   0  0  0  0  0  0  0  0  0  0  0  0
   10.9982   -4.8759   24.2655 H   0  0  0  0  0  0  0  0  0  0  0  0
   11.3262   -1.6366   24.3344 H   0  0  0  0  0  0  0  0  0  0  0  0
    8.9944   -6.0857   25.6297 H   0  0  0  0  0  0  0  0  0  0  0  0
    7.2081   -4.3099   29.2580 H   0  0  0  0  0  0  0  0  0  0  0  0
  1 12  1  0  0  0  0
  1 14  1  0  0  0  0
  1 15  2  0  0  0  0
  2 13  1  0  0  0  0
  2 16  2  0  0  0  0
  2 17  1  0  0  0  0
  3  4  1  0  0  0  0
  3  5  1  0  0  0  0
  3 18  1  0  0  0  0
  3 19  1  0  0  0  0
  4  6  1  0  0  0  0
  4 20  1  0  0  0  0
  4 21  1  0  0  0  0
  5  7  1  0  0  0  0
  5 22  1  0  0  0  0
  5 23  1  0  0  0  0
  6 12  1  0  0  0  0
  6 24  1  0  0  0  0
  6 25  1  0  0  0  0
  7 12  1  0  0  0  0
  7 26  1  0  0  0  0
  7 27  1  0  0  0  0
  8 10  1  0  0  0  0
  8 13  1  0  0  0  0
  8 28  1  0  0  0  0
  8 29  1  0  0  0  0
  9 11  1  0  0  0  0
  9 13  1  0  0  0  0
  9 30  1  0  0  0  0
  9 31  1  0  0  0  0
 10 14  1  0  0  0  0
 10 32  1  0  0  0  0
 10 33  1  0  0  0  0
 11 14  1  0  0  0  0
 11 34  1  0  0  0  0
 11 35  1  0  0  0  0
 12 36  1  0  0  0  0
 13 37  1  0  0  0  0
 17 38  1  0  0  0  0
M  END
>  <Chemgauss4 Score>
-5.12373733520508

>  <Number of Confs>
102

$$$$
