MIH-UNI-6b9-4
 OpenBabel03242009303D

 36 38  0  0  1  0  0  0  0  0999 V2000
   12.9582   -0.5639   22.6267 C   0  0  0  0  0  0  0  0  0  0  0  0
   12.2701   -1.7706   22.5676 C   0  0  0  0  0  0  0  0  0  0  0  0
    8.2204   -4.2855   28.6930 C   0  0  0  0  0  0  0  0  0  0  0  0
   12.3939    0.4694   23.3571 C   0  0  0  0  0  0  0  0  0  0  0  0
   10.5766   -0.8120   23.9349 C   0  0  0  0  0  0  0  0  0  0  0  0
    7.8533   -3.2298   29.4982 C   0  0  0  0  0  0  0  0  0  0  0  0
    9.1537   -2.4930   27.5448 C   0  0  0  0  0  0  0  0  0  0  0  0
    8.9738   -3.8588   27.5614 C   0  0  0  0  0  0  0  0  0  0  0  0
   11.0557   -1.9053   23.2313 C   0  0  0  0  0  0  0  0  0  0  0  0
    8.4320   -5.7030   25.8598 C   0  0  0  0  0  0  0  0  0  0  0  0
   10.3523   -4.1820   25.3580 C   0  0  0  0  0  0  0  0  0  0  0  0
    9.5156   -4.8047   26.4945 C   0  0  1  0  0  0  0  0  0  0  0  0
    7.6527   -5.0370   24.7195 C   0  0  1  0  0  0  0  0  0  0  0  0
    9.4881   -3.5510   24.2609 C   0  0  1  0  0  0  0  0  0  0  0  0
   11.2166    0.3762   24.0151 N   0  0  0  0  0  0  0  0  0  0  0  0
    6.6509   -4.0844   25.1936 N   0  0  0  0  0  0  0  0  0  0  0  0
   10.3487   -3.0940   23.1905 N   0  0  0  0  0  0  0  0  0  0  0  0
    8.5466   -4.4906   23.7439 O   0  0  0  0  0  0  0  0  0  0  0  0
    8.4163   -1.7315   28.8896 S   0  0  0  0  0  0  0  0  0  0  0  0
   13.9064   -0.4361   22.1171 H   0  0  0  0  0  0  0  0  0  0  0  0
   12.6884   -2.5990   22.0021 H   0  0  0  0  0  0  0  0  0  0  0  0
    7.9583   -5.3136   28.9091 H   0  0  0  0  0  0  0  0  0  0  0  0
   12.8909    1.4308   23.4345 H   0  0  0  0  0  0  0  0  0  0  0  0
    9.6345   -0.8562   24.4730 H   0  0  0  0  0  0  0  0  0  0  0  0
    7.2810   -3.2666   30.4144 H   0  0  0  0  0  0  0  0  0  0  0  0
    9.6810   -1.9021   26.8088 H   0  0  0  0  0  0  0  0  0  0  0  0
    8.8987   -6.6507   25.5051 H   0  0  0  0  0  0  0  0  0  0  0  0
    7.7207   -6.0174   26.6592 H   0  0  0  0  0  0  0  0  0  0  0  0
   10.9843   -3.3897   25.7888 H   0  0  0  0  0  0  0  0  0  0  0  0
   11.0457   -4.9218   24.9328 H   0  0  0  0  0  0  0  0  0  0  0  0
   10.2084   -5.5172   27.0563 H   0  0  0  0  0  0  0  0  0  0  0  0
    7.0660   -5.8593   24.1810 H   0  0  0  0  0  0  0  0  0  0  0  0
    8.9530   -2.7165   24.6476 H   0  0  0  0  0  0  0  0  0  0  0  0
    6.7181   -4.0310   26.1820 H   0  0  0  0  0  0  0  0  0  0  0  0
    6.8426   -3.2032   24.7800 H   0  0  0  0  0  0  0  0  0  0  0  0
   10.4358   -3.6800   22.3698 H   0  0  0  0  0  0  0  0  0  0  0  0
  1  2  2  0  0  0  0
  1  4  1  0  0  0  0
  1 20  1  0  0  0  0
  2  9  1  0  0  0  0
  2 21  1  0  0  0  0
  3  6  2  0  0  0  0
  3  8  1  0  0  0  0
  3 22  1  0  0  0  0
  4 15  2  0  0  0  0
  4 23  1  0  0  0  0
  5  9  2  0  0  0  0
  5 15  1  0  0  0  0
  5 24  1  0  0  0  0
  6 19  1  0  0  0  0
  6 25  1  0  0  0  0
  7  8  2  0  0  0  0
  7 19  1  0  0  0  0
  7 26  1  0  0  0  0
  8 12  1  0  0  0  0
  9 17  1  0  0  0  0
 10 12  1  0  0  0  0
 10 13  1  0  0  0  0
 10 27  1  0  0  0  0
 10 28  1  0  0  0  0
 11 12  1  0  0  0  0
 11 14  1  0  0  0  0
 11 29  1  0  0  0  0
 11 30  1  0  0  0  0
 12 31  1  1  0  0  0
 13 16  1  0  0  0  0
 13 18  1  0  0  0  0
 13 32  1  6  0  0  0
 14 17  1  0  0  0  0
 14 18  1  0  0  0  0
 14 33  1  1  0  0  0
 16 34  1  0  0  0  0
 16 35  1  0  0  0  0
 17 36  1  0  0  0  0
M  END
>  <Chemgauss4 Score>
-5.77264451980591

>  <Number of Confs>
82

$$$$
