DAR-DIA-842-19
 OpenBabel03242009303D

 30 32  0  0  0  0  0  0  0  0999 V2000
    4.0936   -6.1207   23.8179 C   0  0  0  0  0  0  0  0  0  0  0  0
   11.7014   -0.7510   22.6347 C   0  0  0  0  0  0  0  0  0  0  0  0
    4.6377   -5.5017   26.1616 C   0  0  0  0  0  0  0  0  0  0  0  0
   11.6591   -2.0424   23.1570 C   0  0  0  0  0  0  0  0  0  0  0  0
    5.7262   -5.0085   26.9376 C   0  0  0  0  0  0  0  0  0  0  0  0
   10.9643   -3.3010   25.3432 C   0  0  0  0  0  0  0  0  0  0  0  0
   11.2622    0.3034   23.4240 C   0  0  0  0  0  0  0  0  0  0  0  0
    4.9737   -5.6490   24.8339 C   0  0  0  0  0  0  0  0  0  0  0  0
   11.1704   -2.2056   24.4634 C   0  0  0  0  0  0  0  0  0  0  0  0
   10.4443   -2.8000   26.5172 C   0  0  0  0  0  0  0  0  0  0  0  0
   10.7629   -1.0610   25.1423 C   0  0  0  0  0  0  0  0  0  0  0  0
    6.8528   -4.7978   26.1733 C   0  0  0  0  0  0  0  0  0  0  0  0
    8.5812   -3.9416   27.7934 C   0  0  0  0  0  0  0  0  0  0  0  0
   10.0445   -3.4847   27.7611 C   0  0  0  0  0  0  0  0  0  0  0  0
    3.3767   -6.5049   22.9901 N   0  0  0  0  0  0  0  0  0  0  0  0
   10.7826    0.2055   24.6857 N   0  0  0  0  0  0  0  0  0  0  0  0
   10.3261   -1.4408   26.3841 N   0  0  0  0  0  0  0  0  0  0  0  0
    8.1376   -4.3232   26.5297 N   0  0  0  0  0  0  0  0  0  0  0  0
    7.9385   -3.9440   28.8384 O   0  0  0  0  0  0  0  0  0  0  0  0
    6.5957   -5.1938   24.5273 S   0  0  0  0  0  0  0  0  0  0  0  0
   12.0704   -0.5751   21.6300 H   0  0  0  0  0  0  0  0  0  0  0  0
    3.6603   -5.7327   26.5674 H   0  0  0  0  0  0  0  0  0  0  0  0
   11.9934   -2.8897   22.5669 H   0  0  0  0  0  0  0  0  0  0  0  0
    5.6809   -4.8195   28.0028 H   0  0  0  0  0  0  0  0  0  0  0  0
   11.1721   -4.3432   25.1411 H   0  0  0  0  0  0  0  0  0  0  0  0
   11.2879    1.3169   23.0324 H   0  0  0  0  0  0  0  0  0  0  0  0
   10.6719   -4.3799   27.9437 H   0  0  0  0  0  0  0  0  0  0  0  0
   10.2062   -2.8340   28.6434 H   0  0  0  0  0  0  0  0  0  0  0  0
    9.9718   -0.8116   27.0914 H   0  0  0  0  0  0  0  0  0  0  0  0
    8.8164   -4.2526   25.7744 H   0  0  0  0  0  0  0  0  0  0  0  0
  1  8  1  0  0  0  0
  1 15  3  0  0  0  0
  2  4  2  0  0  0  0
  2  7  1  0  0  0  0
  2 21  1  0  0  0  0
  3  5  1  0  0  0  0
  3  8  2  0  0  0  0
  3 22  1  0  0  0  0
  4  9  1  0  0  0  0
  4 23  1  0  0  0  0
  5 12  2  0  0  0  0
  5 24  1  0  0  0  0
  6  9  1  0  0  0  0
  6 10  2  0  0  0  0
  6 25  1  0  0  0  0
  7 16  2  0  0  0  0
  7 26  1  0  0  0  0
  8 20  1  0  0  0  0
  9 11  2  0  0  0  0
 10 14  1  0  0  0  0
 10 17  1  0  0  0  0
 11 16  1  0  0  0  0
 11 17  1  0  0  0  0
 12 18  1  0  0  0  0
 12 20  1  0  0  0  0
 13 14  1  0  0  0  0
 13 18  1  0  0  0  0
 13 19  2  0  0  0  0
 14 27  1  0  0  0  0
 14 28  1  0  0  0  0
 17 29  1  0  0  0  0
 18 30  1  0  0  0  0
M  END
>  <Chemgauss4 Score>
-5.10619831085205

>  <Number of Confs>
65

$$$$
