DUN-NEW-f8c-12
 OpenBabel03242009303D

 30 31  0  0  0  0  0  0  0  0999 V2000
   12.3785   -1.3055   22.4808 C   0  0  0  0  0  0  0  0  0  0  0  0
    9.9743   -1.5335   22.1233 C   0  0  0  0  0  0  0  0  0  0  0  0
    8.7300   -2.0836   22.4442 C   0  0  0  0  0  0  0  0  0  0  0  0
   11.0552   -2.8014   23.8900 C   0  0  0  0  0  0  0  0  0  0  0  0
    8.0289   -4.4785   25.0689 C   0  0  0  0  0  0  0  0  0  0  0  0
   11.1203   -1.8855   22.8337 C   0  0  0  0  0  0  0  0  0  0  0  0
    9.8116   -3.3690   24.2318 C   0  0  0  0  0  0  0  0  0  0  0  0
    9.3856   -4.3038   25.2165 C   0  0  0  0  0  0  0  0  0  0  0  0
    8.6800   -2.9978   23.5025 C   0  0  0  0  0  0  0  0  0  0  0  0
    7.4551   -4.3423   28.3703 C   0  0  0  0  0  0  0  0  0  0  0  0
    6.1529   -5.0386   28.5887 C   0  0  0  0  0  0  0  0  0  0  0  0
   10.2374   -4.9720   26.2211 C   0  0  0  0  0  0  0  0  0  0  0  0
    9.8151   -4.7075   27.6778 C   0  0  0  0  0  0  0  0  0  0  0  0
   13.3999   -0.8348   22.1943 N   0  0  0  0  0  0  0  0  0  0  0  0
    7.6125   -3.6868   24.0324 N   0  0  0  0  0  0  0  0  0  0  0  0
    8.4811   -5.1725   27.9484 N   0  0  0  0  0  0  0  0  0  0  0  0
    7.5351   -3.1352   28.5661 O   0  0  0  0  0  0  0  0  0  0  0  0
   10.0314   -0.8208   21.3027 H   0  0  0  0  0  0  0  0  0  0  0  0
    7.8387   -1.8088   21.8903 H   0  0  0  0  0  0  0  0  0  0  0  0
   11.9493   -3.0768   24.4439 H   0  0  0  0  0  0  0  0  0  0  0  0
    7.3212   -5.0939   25.6067 H   0  0  0  0  0  0  0  0  0  0  0  0
    6.0427   -5.4104   29.6201 H   0  0  0  0  0  0  0  0  0  0  0  0
    5.2886   -4.3753   28.4245 H   0  0  0  0  0  0  0  0  0  0  0  0
    5.9726   -5.9140   27.9444 H   0  0  0  0  0  0  0  0  0  0  0  0
   11.2890   -4.6422   26.1076 H   0  0  0  0  0  0  0  0  0  0  0  0
   10.2713   -6.0679   26.0561 H   0  0  0  0  0  0  0  0  0  0  0  0
   10.4779   -5.2247   28.3787 H   0  0  0  0  0  0  0  0  0  0  0  0
    9.8445   -3.6371   27.9066 H   0  0  0  0  0  0  0  0  0  0  0  0
    6.6594   -3.6177   23.7033 H   0  0  0  0  0  0  0  0  0  0  0  0
    8.2803   -6.1635   27.8236 H   0  0  0  0  0  0  0  0  0  0  0  0
  1  6  1  0  0  0  0
  1 14  3  0  0  0  0
  2  3  2  0  0  0  0
  2  6  1  0  0  0  0
  2 18  1  0  0  0  0
  3  9  1  0  0  0  0
  3 19  1  0  0  0  0
  4  6  2  0  0  0  0
  4  7  1  0  0  0  0
  4 20  1  0  0  0  0
  5  8  2  0  0  0  0
  5 15  1  0  0  0  0
  5 21  1  0  0  0  0
  7  8  1  0  0  0  0
  7  9  2  0  0  0  0
  8 12  1  0  0  0  0
  9 15  1  0  0  0  0
 10 11  1  0  0  0  0
 10 16  1  0  0  0  0
 10 17  2  0  0  0  0
 11 22  1  0  0  0  0
 11 23  1  0  0  0  0
 11 24  1  0  0  0  0
 12 13  1  0  0  0  0
 12 25  1  0  0  0  0
 12 26  1  0  0  0  0
 13 16  1  0  0  0  0
 13 27  1  0  0  0  0
 13 28  1  0  0  0  0
 15 29  1  0  0  0  0
 16 30  1  0  0  0  0
M  END
>  <Chemgauss4 Score>
-5.37841176986694

>  <Number of Confs>
37

$$$$
