JOR-UNI-2fc-11
 OpenBabel03242009303D

 50 52  0  0  0  0  0  0  0  0999 V2000
    8.1980   -5.7557   28.6345 C   0  0  0  0  0  0  0  0  0  0  0  0
   12.9656   -0.7874   22.7724 C   0  0  0  0  0  0  0  0  0  0  0  0
    8.7860   -5.0768   27.5674 C   0  0  0  0  0  0  0  0  0  0  0  0
   12.3460   -1.9599   23.1902 C   0  0  0  0  0  0  0  0  0  0  0  0
    6.9647   -6.3853   28.4660 C   0  0  0  0  0  0  0  0  0  0  0  0
    6.9074   -5.6567   26.1632 C   0  0  0  0  0  0  0  0  0  0  0  0
   12.5166    0.4094   23.3070 C   0  0  0  0  0  0  0  0  0  0  0  0
   10.9361   -0.6540   24.5913 C   0  0  0  0  0  0  0  0  0  0  0  0
    8.1407   -5.0272   26.3318 C   0  0  0  0  0  0  0  0  0  0  0  0
   11.3109   -1.9006   24.1167 C   0  0  0  0  0  0  0  0  0  0  0  0
    6.3194   -6.3358   27.2304 C   0  0  0  0  0  0  0  0  0  0  0  0
    9.6107   -3.1776   25.4825 C   0  0  0  0  0  0  0  0  0  0  0  0
    8.6917   -0.8886   21.8052 C   0  0  0  0  0  0  0  0  0  0  0  0
    6.4780   -0.5217   22.6890 C   0  0  0  0  0  0  0  0  0  0  0  0
    8.4988   -2.4019   21.9510 C   0  0  0  0  0  0  0  0  0  0  0  0
    6.2852   -2.0352   22.8335 C   0  0  0  0  0  0  0  0  0  0  0  0
    7.5900    1.2283   21.4576 C   0  0  0  0  0  0  0  0  0  0  0  0
    7.3879   -4.1509   23.1848 C   0  0  0  0  0  0  0  0  0  0  0  0
    8.5647   -4.8161   23.8785 C   0  0  0  0  0  0  0  0  0  0  0  0
   11.5143    0.5067   24.2089 N   0  0  0  0  0  0  0  0  0  0  0  0
    7.4047   -0.2152   21.5924 N   0  0  0  0  0  0  0  0  0  0  0  0
    7.5724   -2.7075   23.0481 N   0  0  0  0  0  0  0  0  0  0  0  0
   10.6605   -3.0774   24.5610 N   0  0  0  0  0  0  0  0  0  0  0  0
    8.7595   -4.3122   25.2110 N   0  0  0  0  0  0  0  0  0  0  0  0
    9.4379   -2.3887   26.4129 O   0  0  0  0  0  0  0  0  0  0  0  0
    4.7977   -7.1125   27.0223 Cl  0  0  0  0  0  0  0  0  0  0  0  0
    8.7005   -5.7942   29.5968 H   0  0  0  0  0  0  0  0  0  0  0  0
   13.7745   -0.8098   22.0511 H   0  0  0  0  0  0  0  0  0  0  0  0
    9.7475   -4.5898   27.7107 H   0  0  0  0  0  0  0  0  0  0  0  0
   12.6772   -2.9136   22.7878 H   0  0  0  0  0  0  0  0  0  0  0  0
    6.5190   -6.9107   29.3066 H   0  0  0  0  0  0  0  0  0  0  0  0
    6.4072   -5.6164   25.1981 H   0  0  0  0  0  0  0  0  0  0  0  0
   12.9665    1.3520   23.0129 H   0  0  0  0  0  0  0  0  0  0  0  0
   10.1350   -0.5433   25.3161 H   0  0  0  0  0  0  0  0  0  0  0  0
    9.1978   -0.4936   22.6966 H   0  0  0  0  0  0  0  0  0  0  0  0
    9.3514   -0.7061   20.9482 H   0  0  0  0  0  0  0  0  0  0  0  0
    5.5005   -0.0677   22.4858 H   0  0  0  0  0  0  0  0  0  0  0  0
    6.8414   -0.1036   23.6377 H   0  0  0  0  0  0  0  0  0  0  0  0
    8.1353   -2.8208   21.0027 H   0  0  0  0  0  0  0  0  0  0  0  0
    9.4764   -2.8559   22.1543 H   0  0  0  0  0  0  0  0  0  0  0  0
    5.6245   -2.2181   23.6897 H   0  0  0  0  0  0  0  0  0  0  0  0
    5.7804   -2.4301   21.9412 H   0  0  0  0  0  0  0  0  0  0  0  0
    6.6142    1.7106   21.2992 H   0  0  0  0  0  0  0  0  0  0  0  0
    8.0510    1.6258   22.3738 H   0  0  0  0  0  0  0  0  0  0  0  0
    8.2448    1.4351   20.5982 H   0  0  0  0  0  0  0  0  0  0  0  0
    6.4564   -4.3106   23.7371 H   0  0  0  0  0  0  0  0  0  0  0  0
    7.2683   -4.5563   22.1753 H   0  0  0  0  0  0  0  0  0  0  0  0
    8.3942   -5.8937   23.9642 H   0  0  0  0  0  0  0  0  0  0  0  0
    9.4962   -4.6550   23.3263 H   0  0  0  0  0  0  0  0  0  0  0  0
   10.9947   -3.9514   24.1648 H   0  0  0  0  0  0  0  0  0  0  0  0
  1  3  2  0  0  0  0
  1  5  1  0  0  0  0
  1 27  1  0  0  0  0
  2  4  2  0  0  0  0
  2  7  1  0  0  0  0
  2 28  1  0  0  0  0
  3  9  1  0  0  0  0
  3 29  1  0  0  0  0
  4 10  1  0  0  0  0
  4 30  1  0  0  0  0
  5 11  2  0  0  0  0
  5 31  1  0  0  0  0
  6  9  2  0  0  0  0
  6 11  1  0  0  0  0
  6 32  1  0  0  0  0
  7 20  2  0  0  0  0
  7 33  1  0  0  0  0
  8 10  2  0  0  0  0
  8 20  1  0  0  0  0
  8 34  1  0  0  0  0
  9 24  1  0  0  0  0
 10 23  1  0  0  0  0
 11 26  1  0  0  0  0
 12 23  1  0  0  0  0
 12 24  1  0  0  0  0
 12 25  2  0  0  0  0
 13 15  1  0  0  0  0
 13 21  1  0  0  0  0
 13 35  1  0  0  0  0
 13 36  1  0  0  0  0
 14 16  1  0  0  0  0
 14 21  1  0  0  0  0
 14 37  1  0  0  0  0
 14 38  1  0  0  0  0
 15 22  1  0  0  0  0
 15 39  1  0  0  0  0
 15 40  1  0  0  0  0
 16 22  1  0  0  0  0
 16 41  1  0  0  0  0
 16 42  1  0  0  0  0
 17 21  1  0  0  0  0
 17 43  1  0  0  0  0
 17 44  1  0  0  0  0
 17 45  1  0  0  0  0
 18 19  1  0  0  0  0
 18 22  1  0  0  0  0
 18 46  1  0  0  0  0
 18 47  1  0  0  0  0
 19 24  1  0  0  0  0
 19 48  1  0  0  0  0
 19 49  1  0  0  0  0
 23 50  1  0  0  0  0
M  END
>  <Chemgauss4 Score>
-4.75945377349854

>  <Number of Confs>
200

$$$$
