CHR-SOS-70e-6
 OpenBabel03242009303D

 36 38  0  0  0  0  0  0  0  0999 V2000
    6.5553   -3.4661   24.3441 C   0  0  0  0  0  0  0  0  0  0  0  0
    6.9471   -2.1493   24.5850 C   0  0  0  0  0  0  0  0  0  0  0  0
    7.1828   -4.2086   23.3437 C   0  0  0  0  0  0  0  0  0  0  0  0
    8.6819   -4.0900   28.5409 C   0  0  0  0  0  0  0  0  0  0  0  0
    9.3455   -3.5510   27.4445 C   0  0  0  0  0  0  0  0  0  0  0  0
    7.9662   -1.5749   23.8254 C   0  0  0  0  0  0  0  0  0  0  0  0
    8.2019   -3.6342   22.5841 C   0  0  0  0  0  0  0  0  0  0  0  0
    8.2257   -5.3949   28.4458 C   0  0  0  0  0  0  0  0  0  0  0  0
    9.0361   -5.6169   26.3075 C   0  0  0  0  0  0  0  0  0  0  0  0
    9.5301   -4.3223   26.3024 C   0  0  0  0  0  0  0  0  0  0  0  0
    8.5937   -2.3173   22.8249 C   0  0  0  0  0  0  0  0  0  0  0  0
   10.7481   -2.5302   25.0191 C   0  0  0  0  0  0  0  0  0  0  0  0
   10.7025    0.1207   23.2905 C   0  0  0  0  0  0  0  0  0  0  0  0
   11.5830   -0.2518   22.1301 C   0  0  0  0  0  0  0  0  0  0  0  0
   10.7447   -1.3031   22.8055 C   0  0  0  0  0  0  0  0  0  0  0  0
   11.3908   -2.3571   23.6391 C   0  0  0  0  0  0  0  0  0  0  0  0
    8.3863   -6.1750   27.3534 N   0  0  0  0  0  0  0  0  0  0  0  0
   10.2013   -3.8013   25.1707 N   0  0  0  0  0  0  0  0  0  0  0  0
   10.7527   -1.6179   25.8390 O   0  0  0  0  0  0  0  0  0  0  0  0
    9.5889   -1.7557   22.0811 O   0  0  0  0  0  0  0  0  0  0  0  0
    5.7622   -3.9139   24.9357 H   0  0  0  0  0  0  0  0  0  0  0  0
    6.4585   -1.5710   25.3638 H   0  0  0  0  0  0  0  0  0  0  0  0
    6.8772   -5.2341   23.1568 H   0  0  0  0  0  0  0  0  0  0  0  0
    8.5267   -3.5071   29.4416 H   0  0  0  0  0  0  0  0  0  0  0  0
    9.7145   -2.5297   27.4905 H   0  0  0  0  0  0  0  0  0  0  0  0
    8.2657   -0.5481   24.0170 H   0  0  0  0  0  0  0  0  0  0  0  0
    8.6859   -4.2167   21.8049 H   0  0  0  0  0  0  0  0  0  0  0  0
    7.7013   -5.8611   29.2733 H   0  0  0  0  0  0  0  0  0  0  0  0
    9.1495   -6.2677   25.4456 H   0  0  0  0  0  0  0  0  0  0  0  0
   11.1854    0.3628   24.2296 H   0  0  0  0  0  0  0  0  0  0  0  0
    9.8160    0.7074   23.0816 H   0  0  0  0  0  0  0  0  0  0  0  0
   11.2862    0.0858   21.1442 H   0  0  0  0  0  0  0  0  0  0  0  0
   12.6537   -0.2590   22.2945 H   0  0  0  0  0  0  0  0  0  0  0  0
   12.4599   -2.1282   23.8019 H   0  0  0  0  0  0  0  0  0  0  0  0
   11.3491   -3.3388   23.1326 H   0  0  0  0  0  0  0  0  0  0  0  0
   10.2875   -4.4409   24.3835 H   0  0  0  0  0  0  0  0  0  0  0  0
  1  2  1  0  0  0  0
  1  3  2  0  0  0  0
  1 21  1  0  0  0  0
  2  6  2  0  0  0  0
  2 22  1  0  0  0  0
  3  7  1  0  0  0  0
  3 23  1  0  0  0  0
  4  5  2  0  0  0  0
  4  8  1  0  0  0  0
  4 24  1  0  0  0  0
  5 10  1  0  0  0  0
  5 25  1  0  0  0  0
  6 11  1  0  0  0  0
  6 26  1  0  0  0  0
  7 11  2  0  0  0  0
  7 27  1  0  0  0  0
  8 17  2  0  0  0  0
  8 28  1  0  0  0  0
  9 10  2  0  0  0  0
  9 17  1  0  0  0  0
  9 29  1  0  0  0  0
 10 18  1  0  0  0  0
 11 20  1  0  0  0  0
 12 16  1  0  0  0  0
 12 18  1  0  0  0  0
 12 19  2  0  0  0  0
 13 14  1  0  0  0  0
 13 15  1  0  0  0  0
 13 30  1  0  0  0  0
 13 31  1  0  0  0  0
 14 15  1  0  0  0  0
 14 32  1  0  0  0  0
 14 33  1  0  0  0  0
 15 16  1  0  0  0  0
 15 20  1  0  0  0  0
 16 34  1  0  0  0  0
 16 35  1  0  0  0  0
 18 36  1  0  0  0  0
M  END
>  <Chemgauss4 Score>
-6.4333963394165

>  <Number of Confs>
200

$$$$
