TRY-UNI-2eddb1ff-7
  -OEChem-08052022273D

 40 42  0     1  0  0  0  0  0999 V2000
    6.6320    0.5940   17.2520 N   0  0  0  0  0  0  0  0  0  0  0  0
    5.0980    0.9060   21.2740 C   0  0  0  0  0  0  0  0  0  0  0  0
    9.0150    1.2120   20.8220 O   0  0  0  0  0  0  0  0  0  0  0  0
   14.1940   -1.9100   21.6990 Cl  0  0  0  0  0  0  0  0  0  0  0  0
    5.6260    0.7590   19.8690 C   0  0  0  0  0  0  0  0  0  0  0  0
    7.5630   -0.5230   20.6330 N   0  0  0  0  0  0  0  0  0  0  0  0
   12.7170    2.6360   23.4450 O   0  0  0  0  0  0  0  0  0  0  0  0
    5.0000    1.4070   18.8080 C   0  0  0  0  0  0  0  0  0  0  0  0
   12.0750    4.6580   22.1930 N   0  0  0  0  0  0  0  0  0  0  0  0
   13.2020    6.6930   21.8710 O   0  0  0  0  0  0  0  0  0  0  0  0
    5.5330    1.3060   17.5390 C   0  0  0  0  0  0  0  0  0  0  0  0
    7.2400   -0.0390   18.2610 C   0  0  0  0  0  0  0  0  0  0  0  0
    6.7930    0.0210   19.5790 C   0  0  0  0  0  0  0  0  0  0  0  0
    8.6020    0.1230   21.2070 C   0  0  0  0  0  0  0  0  0  0  0  0
    9.2100   -0.5900   22.3990 C   0  0  0  0  0  0  0  0  0  0  0  0
   10.6720   -0.2500   22.5660 C   0  0  0  0  0  0  0  0  0  0  0  0
   11.6520   -1.1420   22.1450 C   0  0  0  0  0  0  0  0  0  0  0  0
   12.9770   -0.7640   22.1810 C   0  0  0  0  0  0  0  0  0  0  0  0
   13.3680    0.4840   22.6240 C   0  0  0  0  0  0  0  0  0  0  0  0
   12.3850    1.3610   23.0530 C   0  0  0  0  0  0  0  0  0  0  0  0
   12.9780    3.4700   22.3070 C   0  0  1  0  0  0  0  0  0  0  0  0
   14.0670    4.4610   22.7270 C   0  0  0  0  0  0  0  0  0  0  0  0
   13.1090    5.5190   22.2110 C   0  0  0  0  0  0  0  0  0  0  0  0
   11.0490    1.0010   23.0460 C   0  0  0  0  0  0  0  0  0  0  0  0
    4.2146    1.5614   21.2676 H   0  0  0  0  0  0  0  0  0  0  0  0
    4.8178   -0.0830   21.6656 H   0  0  0  0  0  0  0  0  0  0  0  0
    5.8767    1.3466   21.9140 H   0  0  0  0  0  0  0  0  0  0  0  0
    7.3262   -1.4337   20.9714 H   0  0  0  0  0  0  0  0  0  0  0  0
    4.1033    1.9849   18.9767 H   0  0  0  0  0  0  0  0  0  0  0  0
   11.0833    4.7693   22.1283 H   0  0  0  0  0  0  0  0  0  0  0  0
    5.0381    1.8287   16.7338 H   0  0  0  0  0  0  0  0  0  0  0  0
    8.1205   -0.6253   18.0434 H   0  0  0  0  0  0  0  0  0  0  0  0
    8.6681   -0.2905   23.3082 H   0  0  0  0  0  0  0  0  0  0  0  0
    9.1107   -1.6758   22.2538 H   0  0  0  0  0  0  0  0  0  0  0  0
   11.3767   -2.1249   21.7920 H   0  0  0  0  0  0  0  0  0  0  0  0
   14.4099    0.7682   22.6357 H   0  0  0  0  0  0  0  0  0  0  0  0
   13.1802    2.9479   21.3601 H   0  0  0  0  0  0  0  0  0  0  0  0
   14.2732    4.5015   23.8067 H   0  0  0  0  0  0  0  0  0  0  0  0
   15.0151    4.3776   22.1755 H   0  0  0  0  0  0  0  0  0  0  0  0
   10.3009    1.6886   23.4119 H   0  0  0  0  0  0  0  0  0  0  0  0
  1 11  2  0  0  0  0
  1 12  1  0  0  0  0
  2  5  1  0  0  0  0
  3 14  2  0  0  0  0
  4 18  1  0  0  0  0
  5  8  2  0  0  0  0
  5 13  1  0  0  0  0
  6 13  1  0  0  0  0
  6 14  1  0  0  0  0
  7 20  1  0  0  0  0
  7 21  1  0  0  0  0
  8 11  1  0  0  0  0
  9 21  1  0  0  0  0
  9 23  1  0  0  0  0
 10 23  2  0  0  0  0
 12 13  2  0  0  0  0
 14 15  1  0  0  0  0
 15 16  1  0  0  0  0
 16 17  2  0  0  0  0
 16 24  1  0  0  0  0
 17 18  1  0  0  0  0
 18 19  2  0  0  0  0
 19 20  1  0  0  0  0
 20 24  2  0  0  0  0
 21 22  1  0  0  0  0
 22 23  1  0  0  0  0
  2 25  1  0  0  0  0
  2 26  1  0  0  0  0
  2 27  1  0  0  0  0
  6 28  1  0  0  0  0
  8 29  1  0  0  0  0
  9 30  1  0  0  0  0
 11 31  1  0  0  0  0
 12 32  1  0  0  0  0
 15 33  1  0  0  0  0
 15 34  1  0  0  0  0
 17 35  1  0  0  0  0
 19 36  1  0  0  0  0
 21 37  1  0  0  0  0
 22 38  1  0  0  0  0
 22 39  1  0  0  0  0
 24 40  1  0  0  0  0
M  END
> <canonical_CID>
TRY-UNI-2eddb1ff-7

> <r_inhibition_at_20_uM>

> <r_inhibition_at_50_uM>
87.191315835

> <r_avg_IC50>
0.940748777754165

> <f_inhibition_at_20_uM>
94.4703

> <f_inhibition_at_50_uM>
97.00562

> <f_avg_IC50>
3.6098563119233

> <f_avg_pIC50>
5.44251008457101

> <relative_solubility_at_20_uM>
0.99

> <relative_solubility_at_100_uM>
1.0

> <trypsin_IC50>
99.0

> <NMR_std_ratio>
304.016753887219

> <acrylamide>
False

> <chloroacetamide>
False

> <series>
3-aminopyridine-like

> <clash_score>
0.0

$$$$
TRY-UNI-714a760b-20
  -OEChem-08052022283D

 32 33  0     0  0  0  0  0  0999 V2000
   12.7628    2.6729   23.5145 C   0  0  0  0  0  0  0  0  0  0  0  0
   12.9770   -0.7640   22.1810 C   0  0  0  0  0  0  0  0  0  0  0  0
   13.3680    0.4840   22.6240 C   0  0  0  0  0  0  0  0  0  0  0  0
   11.6520   -1.1420   22.1450 C   0  0  0  0  0  0  0  0  0  0  0  0
    5.0000    1.4070   18.8080 C   0  0  0  0  0  0  0  0  0  0  0  0
   11.0490    1.0010   23.0460 C   0  0  0  0  0  0  0  0  0  0  0  0
    5.5330    1.3060   17.5390 C   0  0  0  0  0  0  0  0  0  0  0  0
    7.2400   -0.0390   18.2610 C   0  0  0  0  0  0  0  0  0  0  0  0
   12.3850    1.3610   23.0530 C   0  0  0  0  0  0  0  0  0  0  0  0
   10.6720   -0.2500   22.5660 C   0  0  0  0  0  0  0  0  0  0  0  0
    5.6260    0.7590   19.8690 C   0  0  0  0  0  0  0  0  0  0  0  0
    6.7930    0.0210   19.5790 C   0  0  0  0  0  0  0  0  0  0  0  0
    8.6020    0.1230   21.2070 C   0  0  0  0  0  0  0  0  0  0  0  0
    5.0980    0.9060   21.2740 C   0  0  0  0  0  0  0  0  0  0  0  0
    9.2100   -0.5900   22.3990 C   0  0  0  0  0  0  0  0  0  0  0  0
   13.0666    3.7296   23.8861 N   0  0  0  0  0  0  0  0  0  0  0  0
    6.6320    0.5940   17.2520 N   0  0  0  0  0  0  0  0  0  0  0  0
    7.5630   -0.5230   20.6330 N   0  0  0  0  0  0  0  0  0  0  0  0
    9.0150    1.2120   20.8220 O   0  0  0  0  0  0  0  0  0  0  0  0
   13.7489   -1.4799   21.8469 H   0  0  0  0  0  0  0  0  0  0  0  0
   14.4112    0.7553   22.6303 H   0  0  0  0  0  0  0  0  0  0  0  0
   11.3790   -2.1324   21.7884 H   0  0  0  0  0  0  0  0  0  0  0  0
    4.0894    1.9955   18.9731 H   0  0  0  0  0  0  0  0  0  0  0  0
   10.2872    1.6870   23.4139 H   0  0  0  0  0  0  0  0  0  0  0  0
    5.0712    1.8129   16.6995 H   0  0  0  0  0  0  0  0  0  0  0  0
    8.1159   -0.6122   17.9919 H   0  0  0  0  0  0  0  0  0  0  0  0
    5.3779    1.8830   21.6846 H   0  0  0  0  0  0  0  0  0  0  0  0
    4.0050    0.8168   21.2980 H   0  0  0  0  0  0  0  0  0  0  0  0
    5.4968    0.1232   21.9311 H   0  0  0  0  0  0  0  0  0  0  0  0
    9.0901   -1.6664   22.2639 H   0  0  0  0  0  0  0  0  0  0  0  0
    8.6579   -0.3097   23.2977 H   0  0  0  0  0  0  0  0  0  0  0  0
    7.3129   -1.4300   20.9567 H   0  0  0  0  0  0  0  0  0  0  0  0
  1  9  1  0  0  0  0
  1 16  3  0  0  0  0
  2  3  1  0  0  0  0
  2  4  2  0  0  0  0
  3  9  2  0  0  0  0
  4 10  1  0  0  0  0
  5  7  2  0  0  0  0
  5 11  1  0  0  0  0
  6  9  1  0  0  0  0
  6 10  2  0  0  0  0
  7 17  1  0  0  0  0
  8 12  1  0  0  0  0
  8 17  2  0  0  0  0
 10 15  1  0  0  0  0
 11 12  2  0  0  0  0
 11 14  1  0  0  0  0
 12 18  1  0  0  0  0
 13 15  1  0  0  0  0
 13 18  1  0  0  0  0
 13 19  2  0  0  0  0
  2 20  1  0  0  0  0
  3 21  1  0  0  0  0
  4 22  1  0  0  0  0
  5 23  1  0  0  0  0
  6 24  1  0  0  0  0
  7 25  1  0  0  0  0
  8 26  1  0  0  0  0
 14 27  1  0  0  0  0
 14 28  1  0  0  0  0
 14 29  1  0  0  0  0
 15 30  1  0  0  0  0
 15 31  1  0  0  0  0
 18 32  1  0  0  0  0
M  END
> <IC50_uM>
61.3

> <clash_score>
0

> <docking_score>
-9.971126556396484

$$$$
EDG-MED-0da5ad92-2
  -OEChem-08052022283D

 28 29  0     0  0  0  0  0  0999 V2000
   12.3850    1.3610   23.0530 C   0  0  0  0  0  0  0  0  0  0  0  0
    5.0000    1.4070   18.8080 C   0  0  0  0  0  0  0  0  0  0  0  0
   11.0490    1.0010   23.0460 C   0  0  0  0  0  0  0  0  0  0  0  0
    5.6260    0.7590   19.8690 C   0  0  0  0  0  0  0  0  0  0  0  0
   13.3680    0.4840   22.6240 C   0  0  0  0  0  0  0  0  0  0  0  0
   11.6520   -1.1420   22.1450 C   0  0  0  0  0  0  0  0  0  0  0  0
    5.5330    1.3060   17.5390 C   0  0  0  0  0  0  0  0  0  0  0  0
    7.2400   -0.0390   18.2610 C   0  0  0  0  0  0  0  0  0  0  0  0
   10.6720   -0.2500   22.5660 C   0  0  0  0  0  0  0  0  0  0  0  0
    6.7930    0.0210   19.5790 C   0  0  0  0  0  0  0  0  0  0  0  0
   12.9770   -0.7640   22.1810 C   0  0  0  0  0  0  0  0  0  0  0  0
    8.6020    0.1230   21.2070 C   0  0  0  0  0  0  0  0  0  0  0  0
    9.2100   -0.5900   22.3990 C   0  0  0  0  0  0  0  0  0  0  0  0
    6.6320    0.5940   17.2520 N   0  0  0  0  0  0  0  0  0  0  0  0
    7.5630   -0.5230   20.6330 N   0  0  0  0  0  0  0  0  0  0  0  0
    9.0150    1.2120   20.8220 O   0  0  0  0  0  0  0  0  0  0  0  0
   14.1940   -1.9100   21.6990 Cl  0  0  0  0  0  0  0  0  0  0  0  0
   12.6720    2.3610   23.4053 H   0  0  0  0  0  0  0  0  0  0  0  0
    4.0901    1.9925   18.9832 H   0  0  0  0  0  0  0  0  0  0  0  0
   10.2994    1.6973   23.4158 H   0  0  0  0  0  0  0  0  0  0  0  0
    5.2377    0.8192   20.8600 H   0  0  0  0  0  0  0  0  0  0  0  0
   14.4033    0.7831   22.6425 H   0  0  0  0  0  0  0  0  0  0  0  0
   11.3638   -2.1297   21.7906 H   0  0  0  0  0  0  0  0  0  0  0  0
    5.0713    1.8136   16.6999 H   0  0  0  0  0  0  0  0  0  0  0  0
    8.1161   -0.6121   17.9926 H   0  0  0  0  0  0  0  0  0  0  0  0
    9.0901   -1.6664   22.2639 H   0  0  0  0  0  0  0  0  0  0  0  0
    8.6579   -0.3097   23.2977 H   0  0  0  0  0  0  0  0  0  0  0  0
    7.3129   -1.4300   20.9567 H   0  0  0  0  0  0  0  0  0  0  0  0
  1  3  2  0  0  0  0
  1  5  1  0  0  0  0
  2  4  2  0  0  0  0
  2  7  1  0  0  0  0
  3  9  1  0  0  0  0
  4 10  1  0  0  0  0
  5 11  2  0  0  0  0
  6  9  2  0  0  0  0
  6 11  1  0  0  0  0
  7 14  2  0  0  0  0
  8 10  2  0  0  0  0
  8 14  1  0  0  0  0
  9 13  1  0  0  0  0
 10 15  1  0  0  0  0
 11 17  1  0  0  0  0
 12 13  1  0  0  0  0
 12 15  1  0  0  0  0
 12 16  2  0  0  0  0
  1 18  1  0  0  0  0
  2 19  1  0  0  0  0
  3 20  1  0  0  0  0
  4 21  1  0  0  0  0
  5 22  1  0  0  0  0
  6 23  1  0  0  0  0
  7 24  1  0  0  0  0
  8 25  1  0  0  0  0
 13 26  1  0  0  0  0
 13 27  1  0  0  0  0
 15 28  1  0  0  0  0
M  END
> <IC50_uM>
53.7

> <clash_score>
0

> <docking_score>
-9.777795791625977

$$$$
TRY-UNI-714a760b-6
  -OEChem-08052022283D

 31 32  0     0  0  0  0  0  0999 V2000
   12.3850    1.3610   23.0530 C   0  0  0  0  0  0  0  0  0  0  0  0
   11.0490    1.0010   23.0460 C   0  0  0  0  0  0  0  0  0  0  0  0
   13.3680    0.4840   22.6240 C   0  0  0  0  0  0  0  0  0  0  0  0
    5.0000    1.4070   18.8080 C   0  0  0  0  0  0  0  0  0  0  0  0
   11.6520   -1.1420   22.1450 C   0  0  0  0  0  0  0  0  0  0  0  0
    5.5330    1.3060   17.5390 C   0  0  0  0  0  0  0  0  0  0  0  0
    7.2400   -0.0390   18.2610 C   0  0  0  0  0  0  0  0  0  0  0  0
   10.6720   -0.2500   22.5660 C   0  0  0  0  0  0  0  0  0  0  0  0
    5.6260    0.7590   19.8690 C   0  0  0  0  0  0  0  0  0  0  0  0
    6.7930    0.0210   19.5790 C   0  0  0  0  0  0  0  0  0  0  0  0
   12.9770   -0.7640   22.1810 C   0  0  0  0  0  0  0  0  0  0  0  0
    8.6020    0.1230   21.2070 C   0  0  0  0  0  0  0  0  0  0  0  0
    5.0980    0.9060   21.2740 C   0  0  0  0  0  0  0  0  0  0  0  0
    9.2100   -0.5900   22.3990 C   0  0  0  0  0  0  0  0  0  0  0  0
    6.6320    0.5940   17.2520 N   0  0  0  0  0  0  0  0  0  0  0  0
    7.5630   -0.5230   20.6330 N   0  0  0  0  0  0  0  0  0  0  0  0
    9.0150    1.2120   20.8220 O   0  0  0  0  0  0  0  0  0  0  0  0
   14.1940   -1.9100   21.6990 Cl  0  0  0  0  0  0  0  0  0  0  0  0
   12.6720    2.3610   23.4053 H   0  0  0  0  0  0  0  0  0  0  0  0
   10.2994    1.6973   23.4158 H   0  0  0  0  0  0  0  0  0  0  0  0
   14.4033    0.7831   22.6425 H   0  0  0  0  0  0  0  0  0  0  0  0
    4.0894    1.9955   18.9731 H   0  0  0  0  0  0  0  0  0  0  0  0
   11.3638   -2.1297   21.7906 H   0  0  0  0  0  0  0  0  0  0  0  0
    5.0712    1.8129   16.6995 H   0  0  0  0  0  0  0  0  0  0  0  0
    8.1159   -0.6122   17.9919 H   0  0  0  0  0  0  0  0  0  0  0  0
    5.3304    1.9035   21.6646 H   0  0  0  0  0  0  0  0  0  0  0  0
    4.0110    0.7624   21.3059 H   0  0  0  0  0  0  0  0  0  0  0  0
    5.5388    0.1568   21.9433 H   0  0  0  0  0  0  0  0  0  0  0  0
    9.0901   -1.6664   22.2639 H   0  0  0  0  0  0  0  0  0  0  0  0
    8.6579   -0.3097   23.2977 H   0  0  0  0  0  0  0  0  0  0  0  0
    7.3129   -1.4300   20.9567 H   0  0  0  0  0  0  0  0  0  0  0  0
  1  2  2  0  0  0  0
  1  3  1  0  0  0  0
  2  8  1  0  0  0  0
  3 11  2  0  0  0  0
  4  6  2  0  0  0  0
  4  9  1  0  0  0  0
  5  8  2  0  0  0  0
  5 11  1  0  0  0  0
  6 15  1  0  0  0  0
  7 10  1  0  0  0  0
  7 15  2  0  0  0  0
  8 14  1  0  0  0  0
  9 10  2  0  0  0  0
  9 13  1  0  0  0  0
 10 16  1  0  0  0  0
 11 18  1  0  0  0  0
 12 14  1  0  0  0  0
 12 16  1  0  0  0  0
 12 17  2  0  0  0  0
  1 19  1  0  0  0  0
  2 20  1  0  0  0  0
  3 21  1  0  0  0  0
  4 22  1  0  0  0  0
  5 23  1  0  0  0  0
  6 24  1  0  0  0  0
  7 25  1  0  0  0  0
 13 26  1  0  0  0  0
 13 27  1  0  0  0  0
 13 28  1  0  0  0  0
 14 29  1  0  0  0  0
 14 30  1  0  0  0  0
 16 31  1  0  0  0  0
M  END
> <IC50_uM>
24.6

> <clash_score>
0

> <docking_score>
-10.192285537719727

$$$$
JAN-GHE-83b26c96-12
  -OEChem-08052022283D

 31 32  0     0  0  0  0  0  0999 V2000
   12.9770   -0.7640   22.1810 C   0  0  0  0  0  0  0  0  0  0  0  0
   11.6520   -1.1420   22.1450 C   0  0  0  0  0  0  0  0  0  0  0  0
   13.3680    0.4840   22.6240 C   0  0  0  0  0  0  0  0  0  0  0  0
    5.0000    1.4070   18.8080 C   0  0  0  0  0  0  0  0  0  0  0  0
   11.0490    1.0010   23.0460 C   0  0  0  0  0  0  0  0  0  0  0  0
    5.5330    1.3060   17.5390 C   0  0  0  0  0  0  0  0  0  0  0  0
    7.2400   -0.0390   18.2610 C   0  0  0  0  0  0  0  0  0  0  0  0
   10.6720   -0.2500   22.5660 C   0  0  0  0  0  0  0  0  0  0  0  0
    5.6260    0.7590   19.8690 C   0  0  0  0  0  0  0  0  0  0  0  0
    6.7930    0.0210   19.5790 C   0  0  0  0  0  0  0  0  0  0  0  0
   12.3850    1.3610   23.0530 C   0  0  0  0  0  0  0  0  0  0  0  0
    8.6020    0.1230   21.2070 C   0  0  0  0  0  0  0  0  0  0  0  0
    5.0980    0.9060   21.2740 C   0  0  0  0  0  0  0  0  0  0  0  0
    9.2100   -0.5900   22.3990 C   0  0  0  0  0  0  0  0  0  0  0  0
    6.6320    0.5940   17.2520 N   0  0  0  0  0  0  0  0  0  0  0  0
    7.5630   -0.5230   20.6330 N   0  0  0  0  0  0  0  0  0  0  0  0
    9.0150    1.2120   20.8220 O   0  0  0  0  0  0  0  0  0  0  0  0
   12.8831    3.0925   23.6629 Br  0  0  0  0  0  0  0  0  0  0  0  0
   13.7490   -1.4793   21.8461 H   0  0  0  0  0  0  0  0  0  0  0  0
   11.3786   -2.1323   21.7889 H   0  0  0  0  0  0  0  0  0  0  0  0
   14.4111    0.7538   22.6300 H   0  0  0  0  0  0  0  0  0  0  0  0
    4.0894    1.9955   18.9731 H   0  0  0  0  0  0  0  0  0  0  0  0
   10.2864    1.6862   23.4124 H   0  0  0  0  0  0  0  0  0  0  0  0
    5.0712    1.8129   16.6995 H   0  0  0  0  0  0  0  0  0  0  0  0
    8.1159   -0.6122   17.9919 H   0  0  0  0  0  0  0  0  0  0  0  0
    5.3304    1.9034   21.6647 H   0  0  0  0  0  0  0  0  0  0  0  0
    4.0109    0.7626   21.3059 H   0  0  0  0  0  0  0  0  0  0  0  0
    5.5387    0.1568   21.9433 H   0  0  0  0  0  0  0  0  0  0  0  0
    9.0901   -1.6664   22.2639 H   0  0  0  0  0  0  0  0  0  0  0  0
    8.6578   -0.3097   23.2977 H   0  0  0  0  0  0  0  0  0  0  0  0
    7.3129   -1.4300   20.9567 H   0  0  0  0  0  0  0  0  0  0  0  0
  1  2  2  0  0  0  0
  1  3  1  0  0  0  0
  2  8  1  0  0  0  0
  3 11  2  0  0  0  0
  4  6  2  0  0  0  0
  4  9  1  0  0  0  0
  5  8  2  0  0  0  0
  5 11  1  0  0  0  0
  6 15  1  0  0  0  0
  7 10  1  0  0  0  0
  7 15  2  0  0  0  0
  8 14  1  0  0  0  0
  9 10  2  0  0  0  0
  9 13  1  0  0  0  0
 10 16  1  0  0  0  0
 11 18  1  0  0  0  0
 12 14  1  0  0  0  0
 12 16  1  0  0  0  0
 12 17  2  0  0  0  0
  1 19  1  0  0  0  0
  2 20  1  0  0  0  0
  3 21  1  0  0  0  0
  4 22  1  0  0  0  0
  5 23  1  0  0  0  0
  6 24  1  0  0  0  0
  7 25  1  0  0  0  0
 13 26  1  0  0  0  0
 13 27  1  0  0  0  0
 13 28  1  0  0  0  0
 14 29  1  0  0  0  0
 14 30  1  0  0  0  0
 16 31  1  0  0  0  0
M  END
> <IC50_uM>
20.6

> <clash_score>
0

> <docking_score>
-9.91667366027832

$$$$
JAN-GHE-5a013bed-3
  -OEChem-08052022283D

 34 36  0     0  0  0  0  0  0999 V2000
    3.6460    2.8241   17.4045 C   0  0  0  0  0  0  0  0  0  0  0  0
    4.1852    2.4564   16.1727 C   0  0  0  0  0  0  0  0  0  0  0  0
   12.3850    1.3610   23.0530 C   0  0  0  0  0  0  0  0  0  0  0  0
    4.1893    2.3185   18.5846 C   0  0  0  0  0  0  0  0  0  0  0  0
   11.0490    1.0010   23.0460 C   0  0  0  0  0  0  0  0  0  0  0  0
    5.2713    1.5810   16.1158 C   0  0  0  0  0  0  0  0  0  0  0  0
   13.3680    0.4840   22.6240 C   0  0  0  0  0  0  0  0  0  0  0  0
   11.6520   -1.1420   22.1450 C   0  0  0  0  0  0  0  0  0  0  0  0
    5.2770    1.4418   18.5237 C   0  0  0  0  0  0  0  0  0  0  0  0
   10.6720   -0.2500   22.5660 C   0  0  0  0  0  0  0  0  0  0  0  0
    5.8304    1.0633   17.2893 C   0  0  0  0  0  0  0  0  0  0  0  0
   12.9770   -0.7640   22.1810 C   0  0  0  0  0  0  0  0  0  0  0  0
    7.4174   -0.2757   18.2924 C   0  0  0  0  0  0  0  0  0  0  0  0
    5.8674    0.8941   19.7693 C   0  0  0  0  0  0  0  0  0  0  0  0
    8.6020    0.1230   21.2070 C   0  0  0  0  0  0  0  0  0  0  0  0
    9.2100   -0.5900   22.3990 C   0  0  0  0  0  0  0  0  0  0  0  0
    6.9256    0.1832   17.1888 N   0  0  0  0  0  0  0  0  0  0  0  0
    6.9417    0.0389   19.5458 N   0  0  0  0  0  0  0  0  0  0  0  0
    7.5630   -0.5230   20.6330 N   0  0  0  0  0  0  0  0  0  0  0  0
    5.4120    1.1999   20.8658 O   0  0  0  0  0  0  0  0  0  0  0  0
    9.0150    1.2120   20.8220 O   0  0  0  0  0  0  0  0  0  0  0  0
   14.1940   -1.9100   21.6990 Cl  0  0  0  0  0  0  0  0  0  0  0  0
    2.8010    3.5055   17.4447 H   0  0  0  0  0  0  0  0  0  0  0  0
    3.7597    2.8518   15.2549 H   0  0  0  0  0  0  0  0  0  0  0  0
   12.6720    2.3610   23.4053 H   0  0  0  0  0  0  0  0  0  0  0  0
    3.7554    2.6164   19.5348 H   0  0  0  0  0  0  0  0  0  0  0  0
   10.2994    1.6973   23.4158 H   0  0  0  0  0  0  0  0  0  0  0  0
    5.6797    1.3048   15.1465 H   0  0  0  0  0  0  0  0  0  0  0  0
   14.4033    0.7831   22.6425 H   0  0  0  0  0  0  0  0  0  0  0  0
   11.3638   -2.1297   21.7906 H   0  0  0  0  0  0  0  0  0  0  0  0
    8.2743   -0.9679   18.2849 H   0  0  0  0  0  0  0  0  0  0  0  0
    9.0697   -1.6771   22.2492 H   0  0  0  0  0  0  0  0  0  0  0  0
    8.6585   -0.3533   23.3289 H   0  0  0  0  0  0  0  0  0  0  0  0
    7.2445   -1.4169   21.0031 H   0  0  0  0  0  0  0  0  0  0  0  0
  1  2  1  0  0  0  0
  1  4  2  0  0  0  0
  2  6  2  0  0  0  0
  3  5  2  0  0  0  0
  3  7  1  0  0  0  0
  4  9  1  0  0  0  0
  5 10  1  0  0  0  0
  6 11  1  0  0  0  0
  7 12  2  0  0  0  0
  8 10  2  0  0  0  0
  8 12  1  0  0  0  0
  9 11  2  0  0  0  0
  9 14  1  0  0  0  0
 10 16  1  0  0  0  0
 11 17  1  0  0  0  0
 12 22  1  0  0  0  0
 13 17  2  0  0  0  0
 13 18  1  0  0  0  0
 14 18  1  0  0  0  0
 14 20  2  0  0  0  0
 15 16  1  0  0  0  0
 15 19  1  0  0  0  0
 15 21  2  0  0  0  0
 18 19  1  0  0  0  0
  1 23  1  0  0  0  0
  2 24  1  0  0  0  0
  3 25  1  0  0  0  0
  4 26  1  0  0  0  0
  5 27  1  0  0  0  0
  6 28  1  0  0  0  0
  7 29  1  0  0  0  0
  8 30  1  0  0  0  0
 13 31  1  0  0  0  0
 16 32  1  0  0  0  0
 16 33  1  0  0  0  0
 19 34  1  0  0  0  0
M  END
> <IC50_uM>
8.65

> <clash_score>
0.7702747808150008

> <docking_score>
-7.840572357177734

$$$$
JAN-GHE-5a013bed-2
  -OEChem-08052022283D

 32 34  0     0  0  0  0  0  0999 V2000
    3.3940    1.9989   18.9657 C   0  0  0  0  0  0  0  0  0  0  0  0
    3.7994    1.8821   20.2972 C   0  0  0  0  0  0  0  0  0  0  0  0
   12.3850    1.3610   23.0530 C   0  0  0  0  0  0  0  0  0  0  0  0
   11.0490    1.0010   23.0460 C   0  0  0  0  0  0  0  0  0  0  0  0
    4.1313    1.4070   17.9325 C   0  0  0  0  0  0  0  0  0  0  0  0
    4.9531    1.1717   20.6450 C   0  0  0  0  0  0  0  0  0  0  0  0
   13.3680    0.4840   22.6240 C   0  0  0  0  0  0  0  0  0  0  0  0
   11.6520   -1.1420   22.1450 C   0  0  0  0  0  0  0  0  0  0  0  0
    7.0847   -0.4722   18.2699 C   0  0  0  0  0  0  0  0  0  0  0  0
   10.6720   -0.2500   22.5660 C   0  0  0  0  0  0  0  0  0  0  0  0
    5.2932    0.6897   18.2638 C   0  0  0  0  0  0  0  0  0  0  0  0
    5.6717    0.5907   19.5997 C   0  0  0  0  0  0  0  0  0  0  0  0
   12.9770   -0.7640   22.1810 C   0  0  0  0  0  0  0  0  0  0  0  0
    8.6020    0.1230   21.2070 C   0  0  0  0  0  0  0  0  0  0  0  0
    9.2100   -0.5900   22.3990 C   0  0  0  0  0  0  0  0  0  0  0  0
    6.1828    0.0232   17.4526 N   0  0  0  0  0  0  0  0  0  0  0  0
    6.8206   -0.1577   19.5739 N   0  0  0  0  0  0  0  0  0  0  0  0
    7.5630   -0.5230   20.6330 N   0  0  0  0  0  0  0  0  0  0  0  0
    9.0150    1.2120   20.8220 O   0  0  0  0  0  0  0  0  0  0  0  0
   14.1940   -1.9100   21.6990 Cl  0  0  0  0  0  0  0  0  0  0  0  0
    2.4926    2.5571   18.7266 H   0  0  0  0  0  0  0  0  0  0  0  0
    3.2061    2.3505   21.0789 H   0  0  0  0  0  0  0  0  0  0  0  0
   12.6720    2.3610   23.4053 H   0  0  0  0  0  0  0  0  0  0  0  0
   10.2994    1.6973   23.4158 H   0  0  0  0  0  0  0  0  0  0  0  0
    3.8075    1.5028   16.9010 H   0  0  0  0  0  0  0  0  0  0  0  0
    5.2667    1.0816   21.6790 H   0  0  0  0  0  0  0  0  0  0  0  0
   14.4033    0.7831   22.6425 H   0  0  0  0  0  0  0  0  0  0  0  0
   11.3638   -2.1297   21.7906 H   0  0  0  0  0  0  0  0  0  0  0  0
    7.9432   -1.0616   17.9767 H   0  0  0  0  0  0  0  0  0  0  0  0
    8.6606   -0.3075   23.2967 H   0  0  0  0  0  0  0  0  0  0  0  0
    9.0991   -1.6664   22.2688 H   0  0  0  0  0  0  0  0  0  0  0  0
    7.2917   -1.4629   21.0883 H   0  0  0  0  0  0  0  0  0  0  0  0
  1  2  1  0  0  0  0
  1  5  2  0  0  0  0
  2  6  2  0  0  0  0
  3  4  2  0  0  0  0
  3  7  1  0  0  0  0
  4 10  1  0  0  0  0
  5 11  1  0  0  0  0
  6 12  1  0  0  0  0
  7 13  2  0  0  0  0
  8 10  2  0  0  0  0
  8 13  1  0  0  0  0
  9 16  2  0  0  0  0
  9 17  1  0  0  0  0
 10 15  1  0  0  0  0
 11 12  2  0  0  0  0
 11 16  1  0  0  0  0
 12 17  1  0  0  0  0
 13 20  1  0  0  0  0
 14 15  1  0  0  0  0
 14 18  1  0  0  0  0
 14 19  2  0  0  0  0
 17 18  1  0  0  0  0
  1 21  1  0  0  0  0
  2 22  1  0  0  0  0
  3 23  1  0  0  0  0
  4 24  1  0  0  0  0
  5 25  1  0  0  0  0
  6 26  1  0  0  0  0
  7 27  1  0  0  0  0
  8 28  1  0  0  0  0
  9 29  1  0  0  0  0
 15 30  1  0  0  0  0
 15 31  1  0  0  0  0
 18 32  1  0  0  0  0
M  END
> <IC50_uM>
8.30

> <clash_score>
0

> <docking_score>
-6.964886665344238

$$$$
JAN-GHE-5a013bed-1
  -OEChem-08052022283D

 31 32  0     0  0  0  0  0  0999 V2000
   12.3850    1.3610   23.0530 C   0  0  0  0  0  0  0  0  0  0  0  0
   11.0490    1.0010   23.0460 C   0  0  0  0  0  0  0  0  0  0  0  0
   13.3680    0.4840   22.6240 C   0  0  0  0  0  0  0  0  0  0  0  0
   11.6520   -1.1420   22.1450 C   0  0  0  0  0  0  0  0  0  0  0  0
   10.6720   -0.2500   22.5660 C   0  0  0  0  0  0  0  0  0  0  0  0
   12.9770   -0.7640   22.1810 C   0  0  0  0  0  0  0  0  0  0  0  0
    5.3341    0.9822   18.2720 C   0  0  0  0  0  0  0  0  0  0  0  0
    5.7086    0.7639   19.5739 C   0  0  0  0  0  0  0  0  0  0  0  0
    8.6020    0.1230   21.2070 C   0  0  0  0  0  0  0  0  0  0  0  0
    4.2090    1.7678   17.7467 C   0  0  0  0  0  0  0  0  0  0  0  0
    5.1401    1.2201   20.8544 C   0  0  0  0  0  0  0  0  0  0  0  0
    9.2100   -0.5900   22.3990 C   0  0  0  0  0  0  0  0  0  0  0  0
    6.1956    0.3339   17.4312 N   0  0  0  0  0  0  0  0  0  0  0  0
    7.1029   -0.2878   18.1764 N   0  0  0  0  0  0  0  0  0  0  0  0
    6.8090   -0.0289   19.4609 N   0  0  0  0  0  0  0  0  0  0  0  0
    7.5630   -0.5230   20.6330 N   0  0  0  0  0  0  0  0  0  0  0  0
    9.0150    1.2120   20.8220 O   0  0  0  0  0  0  0  0  0  0  0  0
   14.1940   -1.9100   21.6990 Cl  0  0  0  0  0  0  0  0  0  0  0  0
   12.6720    2.3610   23.4053 H   0  0  0  0  0  0  0  0  0  0  0  0
   10.2994    1.6973   23.4158 H   0  0  0  0  0  0  0  0  0  0  0  0
   14.4033    0.7831   22.6425 H   0  0  0  0  0  0  0  0  0  0  0  0
   11.3638   -2.1297   21.7906 H   0  0  0  0  0  0  0  0  0  0  0  0
    4.4980    2.8194   17.5703 H   0  0  0  0  0  0  0  0  0  0  0  0
    3.8262    1.3664   16.7900 H   0  0  0  0  0  0  0  0  0  0  0  0
    3.3435    1.7751   18.4354 H   0  0  0  0  0  0  0  0  0  0  0  0
    4.3874    0.5084   21.2340 H   0  0  0  0  0  0  0  0  0  0  0  0
    5.9124    1.3359   21.6353 H   0  0  0  0  0  0  0  0  0  0  0  0
    4.6505    2.2062   20.7648 H   0  0  0  0  0  0  0  0  0  0  0  0
    8.6539   -0.3082   23.2948 H   0  0  0  0  0  0  0  0  0  0  0  0
    9.0923   -1.6671   22.2669 H   0  0  0  0  0  0  0  0  0  0  0  0
    7.2796   -1.4119   21.0357 H   0  0  0  0  0  0  0  0  0  0  0  0
  1  2  2  0  0  0  0
  1  3  1  0  0  0  0
  2  5  1  0  0  0  0
  3  6  2  0  0  0  0
  4  5  2  0  0  0  0
  4  6  1  0  0  0  0
  5 12  1  0  0  0  0
  6 18  1  0  0  0  0
  7  8  2  0  0  0  0
  7 10  1  0  0  0  0
  7 13  1  0  0  0  0
  8 11  1  0  0  0  0
  8 15  1  0  0  0  0
  9 12  1  0  0  0  0
  9 16  1  0  0  0  0
  9 17  2  0  0  0  0
 13 14  2  0  0  0  0
 14 15  1  0  0  0  0
 15 16  1  0  0  0  0
  1 19  1  0  0  0  0
  2 20  1  0  0  0  0
  3 21  1  0  0  0  0
  4 22  1  0  0  0  0
 10 23  1  0  0  0  0
 10 24  1  0  0  0  0
 10 25  1  0  0  0  0
 11 26  1  0  0  0  0
 11 27  1  0  0  0  0
 11 28  1  0  0  0  0
 12 29  1  0  0  0  0
 12 30  1  0  0  0  0
 16 31  1  0  0  0  0
M  END
> <IC50_uM>
14.6

> <clash_score>
0

> <docking_score>
-6.31829833984375

$$$$
ALP-POS-95b75b4d-2
  -OEChem-08052022283D

 32 33  0     0  0  0  0  0  0999 V2000
   12.9770   -0.7640   22.1810 C   0  0  0  0  0  0  0  0  0  0  0  0
   11.6520   -1.1420   22.1450 C   0  0  0  0  0  0  0  0  0  0  0  0
   13.3680    0.4840   22.6240 C   0  0  0  0  0  0  0  0  0  0  0  0
    5.0000    1.4070   18.8080 C   0  0  0  0  0  0  0  0  0  0  0  0
   11.0490    1.0010   23.0460 C   0  0  0  0  0  0  0  0  0  0  0  0
    5.5330    1.3060   17.5390 C   0  0  0  0  0  0  0  0  0  0  0  0
    7.2400   -0.0390   18.2610 C   0  0  0  0  0  0  0  0  0  0  0  0
   10.6720   -0.2500   22.5660 C   0  0  0  0  0  0  0  0  0  0  0  0
    5.6260    0.7590   19.8690 C   0  0  0  0  0  0  0  0  0  0  0  0
    6.7930    0.0210   19.5790 C   0  0  0  0  0  0  0  0  0  0  0  0
   12.3850    1.3610   23.0530 C   0  0  0  0  0  0  0  0  0  0  0  0
    8.6020    0.1230   21.2070 C   0  0  0  0  0  0  0  0  0  0  0  0
    5.0980    0.9060   21.2740 C   0  0  0  0  0  0  0  0  0  0  0  0
    9.2100   -0.5900   22.3990 C   0  0  0  0  0  0  0  0  0  0  0  0
    6.6320    0.5940   17.2520 N   0  0  0  0  0  0  0  0  0  0  0  0
    7.5630   -0.5230   20.6330 N   0  0  0  0  0  0  0  0  0  0  0  0
    9.0150    1.2120   20.8220 O   0  0  0  0  0  0  0  0  0  0  0  0
   12.7170    2.6360   23.4450 O   0  0  0  0  0  0  0  0  0  0  0  0
   13.7489   -1.4794   21.8466 H   0  0  0  0  0  0  0  0  0  0  0  0
   11.3788   -2.1323   21.7884 H   0  0  0  0  0  0  0  0  0  0  0  0
   14.4080    0.7635   22.6340 H   0  0  0  0  0  0  0  0  0  0  0  0
    4.0894    1.9955   18.9731 H   0  0  0  0  0  0  0  0  0  0  0  0
   10.2943    1.6936   23.4143 H   0  0  0  0  0  0  0  0  0  0  0  0
    5.0712    1.8129   16.6995 H   0  0  0  0  0  0  0  0  0  0  0  0
    8.1159   -0.6122   17.9919 H   0  0  0  0  0  0  0  0  0  0  0  0
    5.3303    1.9035   21.6646 H   0  0  0  0  0  0  0  0  0  0  0  0
    4.0110    0.7624   21.3059 H   0  0  0  0  0  0  0  0  0  0  0  0
    5.5389    0.1569   21.9434 H   0  0  0  0  0  0  0  0  0  0  0  0
    9.0901   -1.6664   22.2639 H   0  0  0  0  0  0  0  0  0  0  0  0
    8.6578   -0.3097   23.2977 H   0  0  0  0  0  0  0  0  0  0  0  0
    7.3129   -1.4300   20.9567 H   0  0  0  0  0  0  0  0  0  0  0  0
   12.0446    2.9875   24.0501 H   0  0  0  0  0  0  0  0  0  0  0  0
  1  2  2  0  0  0  0
  1  3  1  0  0  0  0
  2  8  1  0  0  0  0
  3 11  2  0  0  0  0
  4  6  2  0  0  0  0
  4  9  1  0  0  0  0
  5  8  2  0  0  0  0
  5 11  1  0  0  0  0
  6 15  1  0  0  0  0
  7 10  1  0  0  0  0
  7 15  2  0  0  0  0
  8 14  1  0  0  0  0
  9 10  2  0  0  0  0
  9 13  1  0  0  0  0
 10 16  1  0  0  0  0
 11 18  1  0  0  0  0
 12 14  1  0  0  0  0
 12 16  1  0  0  0  0
 12 17  2  0  0  0  0
  1 19  1  0  0  0  0
  2 20  1  0  0  0  0
  3 21  1  0  0  0  0
  4 22  1  0  0  0  0
  5 23  1  0  0  0  0
  6 24  1  0  0  0  0
  7 25  1  0  0  0  0
 13 26  1  0  0  0  0
 13 27  1  0  0  0  0
 13 28  1  0  0  0  0
 14 29  1  0  0  0  0
 14 30  1  0  0  0  0
 16 31  1  0  0  0  0
 18 32  1  0  0  0  0
M  END
> <IC50_uM>
200

> <clash_score>
0

> <docking_score>
-10.342772483825684

$$$$
EDJ-MED-e58735b6-2
  -OEChem-08052022283D

 35 36  0     0  0  0  0  0  0999 V2000
   12.9770   -0.7640   22.1810 C   0  0  0  0  0  0  0  0  0  0  0  0
   11.6520   -1.1420   22.1450 C   0  0  0  0  0  0  0  0  0  0  0  0
   13.3680    0.4840   22.6240 C   0  0  0  0  0  0  0  0  0  0  0  0
    5.0000    1.4070   18.8080 C   0  0  0  0  0  0  0  0  0  0  0  0
   11.0490    1.0010   23.0460 C   0  0  0  0  0  0  0  0  0  0  0  0
    5.5330    1.3060   17.5390 C   0  0  0  0  0  0  0  0  0  0  0  0
    7.2400   -0.0390   18.2610 C   0  0  0  0  0  0  0  0  0  0  0  0
   10.6720   -0.2500   22.5660 C   0  0  0  0  0  0  0  0  0  0  0  0
   12.3850    1.3610   23.0530 C   0  0  0  0  0  0  0  0  0  0  0  0
    5.6260    0.7590   19.8690 C   0  0  0  0  0  0  0  0  0  0  0  0
    6.7930    0.0210   19.5790 C   0  0  0  0  0  0  0  0  0  0  0  0
    8.6020    0.1230   21.2070 C   0  0  0  0  0  0  0  0  0  0  0  0
    5.0980    0.9060   21.2740 C   0  0  0  0  0  0  0  0  0  0  0  0
    9.2100   -0.5900   22.3990 C   0  0  0  0  0  0  0  0  0  0  0  0
   12.7784    2.7301   23.5346 C   0  0  0  0  0  0  0  0  0  0  0  0
    6.6320    0.5940   17.2520 N   0  0  0  0  0  0  0  0  0  0  0  0
    7.5630   -0.5230   20.6330 N   0  0  0  0  0  0  0  0  0  0  0  0
    9.0150    1.2120   20.8220 O   0  0  0  0  0  0  0  0  0  0  0  0
   11.7257    3.6471   23.2629 O   0  0  0  0  0  0  0  0  0  0  0  0
   13.7491   -1.4795   21.8462 H   0  0  0  0  0  0  0  0  0  0  0  0
   11.3787   -2.1327   21.7893 H   0  0  0  0  0  0  0  0  0  0  0  0
   14.4090    0.7613   22.6322 H   0  0  0  0  0  0  0  0  0  0  0  0
    4.0894    1.9955   18.9731 H   0  0  0  0  0  0  0  0  0  0  0  0
   10.2927    1.6914   23.4150 H   0  0  0  0  0  0  0  0  0  0  0  0
    5.0712    1.8129   16.6995 H   0  0  0  0  0  0  0  0  0  0  0  0
    8.1159   -0.6122   17.9919 H   0  0  0  0  0  0  0  0  0  0  0  0
    5.3306    1.9033   21.6647 H   0  0  0  0  0  0  0  0  0  0  0  0
    4.0109    0.7628   21.3059 H   0  0  0  0  0  0  0  0  0  0  0  0
    5.5385    0.1566   21.9433 H   0  0  0  0  0  0  0  0  0  0  0  0
    9.0901   -1.6664   22.2639 H   0  0  0  0  0  0  0  0  0  0  0  0
    8.6579   -0.3097   23.2977 H   0  0  0  0  0  0  0  0  0  0  0  0
   12.9761    2.7328   24.6153 H   0  0  0  0  0  0  0  0  0  0  0  0
   13.6904    3.0807   23.0325 H   0  0  0  0  0  0  0  0  0  0  0  0
    7.3129   -1.4300   20.9567 H   0  0  0  0  0  0  0  0  0  0  0  0
   12.0190    4.5132   23.5881 H   0  0  0  0  0  0  0  0  0  0  0  0
  1  2  2  0  0  0  0
  1  3  1  0  0  0  0
  2  8  1  0  0  0  0
  3  9  2  0  0  0  0
  4  6  2  0  0  0  0
  4 10  1  0  0  0  0
  5  8  2  0  0  0  0
  5  9  1  0  0  0  0
  6 16  1  0  0  0  0
  7 11  1  0  0  0  0
  7 16  2  0  0  0  0
  8 14  1  0  0  0  0
  9 15  1  0  0  0  0
 10 11  2  0  0  0  0
 10 13  1  0  0  0  0
 11 17  1  0  0  0  0
 12 14  1  0  0  0  0
 12 17  1  0  0  0  0
 12 18  2  0  0  0  0
 15 19  1  0  0  0  0
  1 20  1  0  0  0  0
  2 21  1  0  0  0  0
  3 22  1  0  0  0  0
  4 23  1  0  0  0  0
  5 24  1  0  0  0  0
  6 25  1  0  0  0  0
  7 26  1  0  0  0  0
 13 27  1  0  0  0  0
 13 28  1  0  0  0  0
 13 29  1  0  0  0  0
 14 30  1  0  0  0  0
 14 31  1  0  0  0  0
 15 32  1  0  0  0  0
 15 33  1  0  0  0  0
 17 34  1  0  0  0  0
 19 35  1  0  0  0  0
M  END
> <IC50_uM>
200

> <clash_score>
0

> <docking_score>
-10.716568946838379

$$$$
