SAL-INS-1c7-7
 OpenBabel03242009303D

 46 48  0  0  1  0  0  0  0  0999 V2000
    5.7591   -5.7366   21.9670 C   0  0  0  0  0  0  0  0  0  0  0  0
    5.6352   -5.6770   23.3550 C   0  0  0  0  0  0  0  0  0  0  0  0
    7.0224   -5.6951   21.3771 C   0  0  0  0  0  0  0  0  0  0  0  0
    6.7746   -5.5758   24.1532 C   0  0  0  0  0  0  0  0  0  0  0  0
    8.1618   -5.5938   22.1753 C   0  0  0  0  0  0  0  0  0  0  0  0
    8.6771   -3.1530   28.0122 C   0  0  0  0  0  0  0  0  0  0  0  0
    9.1002   -2.5079   26.8502 C   0  0  0  0  0  0  0  0  0  0  0  0
    8.6507   -5.2611   26.8322 C   0  0  0  0  0  0  0  0  0  0  0  0
    8.0379   -5.5342   23.5634 C   0  0  0  0  0  0  0  0  0  0  0  0
    8.4524   -4.5297   28.0033 C   0  0  0  0  0  0  0  0  0  0  0  0
    9.0738   -4.6159   25.6702 C   0  0  0  0  0  0  0  0  0  0  0  0
    9.2986   -3.2393   25.6792 C   0  0  0  0  0  0  0  0  0  0  0  0
   11.4410   -2.2207   22.7583 C   0  0  0  0  0  0  0  0  0  0  0  0
   11.7488   -1.0262   22.2432 C   0  0  0  0  0  0  0  0  0  0  0  0
    8.7113   -2.0459   23.6240 C   0  0  0  0  0  0  0  0  0  0  0  0
   11.5878   -0.9518   24.8319 C   0  0  0  0  0  0  0  0  0  0  0  0
   11.1535   -2.2939   24.2321 C   0  0  1  0  0  0  0  0  0  0  0  0
    7.9976   -5.2190   29.2453 C   0  0  0  0  0  0  0  0  0  0  0  0
    9.2753   -5.4241   24.4293 C   0  0  0  0  0  0  0  0  0  0  0  0
    7.3823   -1.8066   24.3185 C   0  0  0  0  0  0  0  0  0  0  0  0
    9.7377   -2.5511   24.4840 N   0  0  0  0  0  0  0  0  0  0  0  0
    8.8236   -1.8373   22.4133 O   0  0  0  0  0  0  0  0  0  0  0  0
   12.9798    0.8766   23.5321 O   0  0  0  0  0  0  0  0  0  0  0  0
   10.4536    0.9277   23.3692 O   0  0  0  0  0  0  0  0  0  0  0  0
   11.7021    0.1976   23.4612 S   0  0  0  0  0  0  0  0  0  0  0  0
    6.1834   -1.2092   23.1518 Cl  0  0  0  0  0  0  0  0  0  0  0  0
    4.8719   -5.8168   21.3457 H   0  0  0  0  0  0  0  0  0  0  0  0
    4.6516   -5.7105   23.8146 H   0  0  0  0  0  0  0  0  0  0  0  0
    7.1193   -5.7425   20.2965 H   0  0  0  0  0  0  0  0  0  0  0  0
    6.6684   -5.5298   25.2339 H   0  0  0  0  0  0  0  0  0  0  0  0
    9.1420   -5.5619   21.7070 H   0  0  0  0  0  0  0  0  0  0  0  0
    8.5252   -2.5751   28.9200 H   0  0  0  0  0  0  0  0  0  0  0  0
    9.2732   -1.4347   26.8696 H   0  0  0  0  0  0  0  0  0  0  0  0
    8.4732   -6.3340   26.8264 H   0  0  0  0  0  0  0  0  0  0  0  0
   11.4048   -3.1113   22.1419 H   0  0  0  0  0  0  0  0  0  0  0  0
   11.9801   -0.8271   21.2069 H   0  0  0  0  0  0  0  0  0  0  0  0
   10.9045   -0.5574   25.5886 H   0  0  0  0  0  0  0  0  0  0  0  0
   12.5899   -1.0381   25.2658 H   0  0  0  0  0  0  0  0  0  0  0  0
   11.7126   -3.1153   24.7163 H   0  0  0  0  0  0  0  0  0  0  0  0
    6.9020   -5.2339   29.2944 H   0  0  0  0  0  0  0  0  0  0  0  0
    8.3617   -6.2539   29.2826 H   0  0  0  0  0  0  0  0  0  0  0  0
    8.3795   -4.7154   30.1429 H   0  0  0  0  0  0  0  0  0  0  0  0
    9.6263   -6.4383   24.6846 H   0  0  0  0  0  0  0  0  0  0  0  0
   10.0989   -5.0040   23.8275 H   0  0  0  0  0  0  0  0  0  0  0  0
    7.0098   -2.7432   24.7409 H   0  0  0  0  0  0  0  0  0  0  0  0
    7.4740   -1.0416   25.0931 H   0  0  0  0  0  0  0  0  0  0  0  0
  1  2  1  0  0  0  0
  1  3  2  0  0  0  0
  1 27  1  0  0  0  0
  2  4  2  0  0  0  0
  2 28  1  0  0  0  0
  3  5  1  0  0  0  0
  3 29  1  0  0  0  0
  4  9  1  0  0  0  0
  4 30  1  0  0  0  0
  5  9  2  0  0  0  0
  5 31  1  0  0  0  0
  6  7  2  0  0  0  0
  6 10  1  0  0  0  0
  6 32  1  0  0  0  0
  7 12  1  0  0  0  0
  7 33  1  0  0  0  0
  8 10  2  0  0  0  0
  8 11  1  0  0  0  0
  8 34  1  0  0  0  0
  9 19  1  0  0  0  0
 10 18  1  0  0  0  0
 11 12  2  0  0  0  0
 11 19  1  0  0  0  0
 12 21  1  0  0  0  0
 13 14  2  0  0  0  0
 13 17  1  0  0  0  0
 13 35  1  0  0  0  0
 14 25  1  0  0  0  0
 14 36  1  0  0  0  0
 15 20  1  0  0  0  0
 15 21  1  0  0  0  0
 15 22  2  0  0  0  0
 16 17  1  0  0  0  0
 16 25  1  0  0  0  0
 16 37  1  0  0  0  0
 16 38  1  0  0  0  0
 17 21  1  0  0  0  0
 17 39  1  1  0  0  0
 18 40  1  0  0  0  0
 18 41  1  0  0  0  0
 18 42  1  0  0  0  0
 19 43  1  0  0  0  0
 19 44  1  0  0  0  0
 20 26  1  0  0  0  0
 20 45  1  0  0  0  0
 20 46  1  0  0  0  0
 23 25  2  0  0  0  0
 24 25  2  0  0  0  0
M  END
>  <Chemgauss4 Score>
-5.93991708755493

>  <Number of Confs>
187

$$$$
