CHR-SOS-363-3
 OpenBabel03242009303D

 38 40  0  0  0  0  0  0  0  0999 V2000
   10.8845   -4.6677   25.5820 C   0  0  0  0  0  0  0  0  0  0  0  0
    6.9918   -3.9793   28.0653 C   0  0  0  0  0  0  0  0  0  0  0  0
    7.4993   -2.7732   27.5824 C   0  0  0  0  0  0  0  0  0  0  0  0
    7.0079   -5.1162   27.2573 C   0  0  0  0  0  0  0  0  0  0  0  0
    5.1750    1.4781   18.7065 C   0  0  0  0  0  0  0  0  0  0  0  0
    5.6365    0.8462   19.8559 C   0  0  0  0  0  0  0  0  0  0  0  0
    8.0229   -2.7039   26.2914 C   0  0  0  0  0  0  0  0  0  0  0  0
    7.5314   -5.0469   25.9662 C   0  0  0  0  0  0  0  0  0  0  0  0
    5.9059    1.3180   17.5404 C   0  0  0  0  0  0  0  0  0  0  0  0
   12.0692   -2.8326   24.4969 C   0  0  0  0  0  0  0  0  0  0  0  0
    7.4566   -0.0137   18.5893 C   0  0  0  0  0  0  0  0  0  0  0  0
   11.0345   -1.3644   23.0644 C   0  0  0  0  0  0  0  0  0  0  0  0
   10.8951   -3.5373   24.7088 C   0  0  0  0  0  0  0  0  0  0  0  0
    6.7984    0.0842   19.8047 C   0  0  0  0  0  0  0  0  0  0  0  0
    9.8120   -2.0003   23.2091 C   0  0  0  0  0  0  0  0  0  0  0  0
    8.0389   -3.8407   25.4833 C   0  0  0  0  0  0  0  0  0  0  0  0
    9.7495   -3.1067   24.0489 C   0  0  0  0  0  0  0  0  0  0  0  0
    8.6273   -0.8684   21.2767 C   0  0  0  0  0  0  0  0  0  0  0  0
   10.8758   -5.5862   26.2914 N   0  0  0  0  0  0  0  0  0  0  0  0
    7.0389    0.5858   17.4519 N   0  0  0  0  0  0  0  0  0  0  0  0
   12.1688   -1.7534   23.6888 N   0  0  0  0  0  0  0  0  0  0  0  0
    7.2928   -0.5704   20.9575 N   0  0  0  0  0  0  0  0  0  0  0  0
    8.6895   -1.5320   22.5268 N   0  0  0  0  0  0  0  0  0  0  0  0
    9.6007   -0.5973   20.5809 O   0  0  0  0  0  0  0  0  0  0  0  0
    8.5482   -3.7732   24.2229 O   0  0  0  0  0  0  0  0  0  0  0  0
    6.5846   -4.0338   29.0707 H   0  0  0  0  0  0  0  0  0  0  0  0
    7.4867   -1.8878   28.2114 H   0  0  0  0  0  0  0  0  0  0  0  0
    6.6126   -6.0551   27.6341 H   0  0  0  0  0  0  0  0  0  0  0  0
    4.2716    2.0770   18.7231 H   0  0  0  0  0  0  0  0  0  0  0  0
    5.0835    0.9540   20.7852 H   0  0  0  0  0  0  0  0  0  0  0  0
    8.4154   -1.7609   25.9206 H   0  0  0  0  0  0  0  0  0  0  0  0
    7.5397   -5.9353   25.3406 H   0  0  0  0  0  0  0  0  0  0  0  0
    5.5884    1.7912   16.6171 H   0  0  0  0  0  0  0  0  0  0  0  0
   12.9987   -3.1170   24.9820 H   0  0  0  0  0  0  0  0  0  0  0  0
    8.3685   -0.5943   18.4864 H   0  0  0  0  0  0  0  0  0  0  0  0
   11.1468   -0.4951   22.4232 H   0  0  0  0  0  0  0  0  0  0  0  0
    6.5959   -0.8607   21.6387 H   0  0  0  0  0  0  0  0  0  0  0  0
    7.7814   -1.6824   22.9796 H   0  0  0  0  0  0  0  0  0  0  0  0
  1 13  1  0  0  0  0
  1 19  3  0  0  0  0
  2  3  1  0  0  0  0
  2  4  2  0  0  0  0
  2 26  1  0  0  0  0
  3  7  2  0  0  0  0
  3 27  1  0  0  0  0
  4  8  1  0  0  0  0
  4 28  1  0  0  0  0
  5  6  2  0  0  0  0
  5  9  1  0  0  0  0
  5 29  1  0  0  0  0
  6 14  1  0  0  0  0
  6 30  1  0  0  0  0
  7 16  1  0  0  0  0
  7 31  1  0  0  0  0
  8 16  2  0  0  0  0
  8 32  1  0  0  0  0
  9 20  2  0  0  0  0
  9 33  1  0  0  0  0
 10 13  1  0  0  0  0
 10 21  2  0  0  0  0
 10 34  1  0  0  0  0
 11 14  2  0  0  0  0
 11 20  1  0  0  0  0
 11 35  1  0  0  0  0
 12 15  2  0  0  0  0
 12 21  1  0  0  0  0
 12 36  1  0  0  0  0
 13 17  2  0  0  0  0
 14 22  1  0  0  0  0
 15 17  1  0  0  0  0
 15 23  1  0  0  0  0
 16 25  1  0  0  0  0
 17 25  1  0  0  0  0
 18 22  1  0  0  0  0
 18 23  1  0  0  0  0
 18 24  2  0  0  0  0
 22 37  1  0  0  0  0
 23 38  1  0  0  0  0
M  END
>  <Chemgauss4 Score>
-6.28736209869385

>  <Number of Confs>
42

$$$$
