SAM-UNK-83e-3
 OpenBabel03242009303D

 39 40  0  0  0  0  0  0  0  0999 V2000
   10.9230   -0.9669   22.4084 C   0  0  0  0  0  0  0  0  0  0  0  0
   11.9430   -2.6859   23.7874 C   0  0  0  0  0  0  0  0  0  0  0  0
    7.4628   -1.9300   23.0866 C   0  0  0  0  0  0  0  0  0  0  0  0
    9.6481   -1.4522   22.7613 C   0  0  0  0  0  0  0  0  0  0  0  0
   10.6890   -3.1848   24.1515 C   0  0  0  0  0  0  0  0  0  0  0  0
    8.3168   -1.0731   22.4313 C   0  0  0  0  0  0  0  0  0  0  0  0
    9.5607   -2.5477   23.6229 C   0  0  0  0  0  0  0  0  0  0  0  0
   12.0605   -1.5942   22.9295 C   0  0  0  0  0  0  0  0  0  0  0  0
   10.5278   -4.3179   25.0402 C   0  0  0  0  0  0  0  0  0  0  0  0
    7.8978   -0.0188   21.5899 C   0  0  0  0  0  0  0  0  0  0  0  0
    9.8455   -4.2680   26.1821 C   0  0  0  0  0  0  0  0  0  0  0  0
    7.1254   -0.1666   20.4904 C   0  0  0  0  0  0  0  0  0  0  0  0
    5.8847    0.5650   18.5406 C   0  0  0  0  0  0  0  0  0  0  0  0
    5.5660    1.8222   17.7744 C   0  0  0  0  0  0  0  0  0  0  0  0
    7.7514   -2.0753   28.6814 C   0  0  0  0  0  0  0  0  0  0  0  0
    8.2224   -2.8157   23.8029 N   0  0  0  0  0  0  0  0  0  0  0  0
    6.6786    0.8078   19.6534 N   0  0  0  0  0  0  0  0  0  0  0  0
    9.2056   -3.1812   26.6909 N   0  0  0  0  0  0  0  0  0  0  0  0
    5.4847   -0.5347   18.1651 O   0  0  0  0  0  0  0  0  0  0  0  0
    6.6203   -3.3488   26.7115 O   0  0  0  0  0  0  0  0  0  0  0  0
    7.9544   -4.6624   28.4077 O   0  0  0  0  0  0  0  0  0  0  0  0
   13.2765   -1.1385   22.5984 F   0  0  0  0  0  0  0  0  0  0  0  0
    7.7650   -3.4780   27.5928 S   0  0  0  0  0  0  0  0  0  0  0  0
   11.0334   -0.1169   21.7410 H   0  0  0  0  0  0  0  0  0  0  0  0
   12.8485   -3.1491   24.1733 H   0  0  0  0  0  0  0  0  0  0  0  0
    6.3833   -1.9935   23.1111 H   0  0  0  0  0  0  0  0  0  0  0  0
   10.9674   -5.2536   24.7242 H   0  0  0  0  0  0  0  0  0  0  0  0
    8.1864    1.0081   21.8506 H   0  0  0  0  0  0  0  0  0  0  0  0
    9.7399   -5.1164   26.8482 H   0  0  0  0  0  0  0  0  0  0  0  0
    6.7639   -1.1367   20.1701 H   0  0  0  0  0  0  0  0  0  0  0  0
    6.3348    1.9910   17.0151 H   0  0  0  0  0  0  0  0  0  0  0  0
    5.5455    2.6691   18.4655 H   0  0  0  0  0  0  0  0  0  0  0  0
    4.5978    1.7414   17.2721 H   0  0  0  0  0  0  0  0  0  0  0  0
    6.8697   -2.1438   29.3204 H   0  0  0  0  0  0  0  0  0  0  0  0
    8.6618   -2.0970   29.2823 H   0  0  0  0  0  0  0  0  0  0  0  0
    7.7148   -1.1691   28.0749 H   0  0  0  0  0  0  0  0  0  0  0  0
    7.8513   -3.5580   24.3796 H   0  0  0  0  0  0  0  0  0  0  0  0
    6.9413    1.7707   19.8545 H   0  0  0  0  0  0  0  0  0  0  0  0
    9.2436   -2.2849   26.1413 H   0  0  0  0  0  0  0  0  0  0  0  0
  1  4  1  0  0  0  0
  1  8  2  0  0  0  0
  1 24  1  0  0  0  0
  2  5  2  0  0  0  0
  2  8  1  0  0  0  0
  2 25  1  0  0  0  0
  3  6  2  0  0  0  0
  3 16  1  0  0  0  0
  3 26  1  0  0  0  0
  4  6  1  0  0  0  0
  4  7  2  0  0  0  0
  5  7  1  0  0  0  0
  5  9  1  0  0  0  0
  6 10  1  0  0  0  0
  7 16  1  0  0  0  0
  8 22  1  0  0  0  0
  9 11  2  3  0  0  0
  9 27  1  0  0  0  0
 10 12  2  3  0  0  0
 10 28  1  0  0  0  0
 11 18  1  0  0  0  0
 11 29  1  0  0  0  0
 12 17  1  0  0  0  0
 12 30  1  0  0  0  0
 13 14  1  0  0  0  0
 13 17  1  0  0  0  0
 13 19  2  0  0  0  0
 14 31  1  0  0  0  0
 14 32  1  0  0  0  0
 14 33  1  0  0  0  0
 15 23  1  0  0  0  0
 15 34  1  0  0  0  0
 15 35  1  0  0  0  0
 15 36  1  0  0  0  0
 16 37  1  0  0  0  0
 17 38  1  0  0  0  0
 18 23  1  0  0  0  0
 18 39  1  0  0  0  0
 20 23  2  0  0  0  0
 21 23  2  0  0  0  0
M  END
>  <Chemgauss4 Score>
-5.32099866867065

>  <Number of Confs>
200

$$$$
