JOH-MEM-5e3-3
 OpenBabel03242009303D

 53 55  0  0  1  0  0  0  0  0999 V2000
   10.4555   -2.2634   25.2206 C   0  0  0  0  0  0  0  0  0  0  0  0
   11.3005   -1.1567   25.3429 C   0  0  0  0  0  0  0  0  0  0  0  0
   10.9815   -0.5818   23.0053 C   0  0  0  0  0  0  0  0  0  0  0  0
    8.7218   -3.3489   22.2319 C   0  0  0  0  0  0  0  0  0  0  0  0
   10.1262   -1.6919   22.8578 C   0  0  0  0  0  0  0  0  0  0  0  0
    9.3866   -2.2361   21.7707 C   0  0  0  0  0  0  0  0  0  0  0  0
    9.8834   -2.5054   23.9666 C   0  0  0  0  0  0  0  0  0  0  0  0
   11.5608   -0.3275   24.2537 C   0  0  0  0  0  0  0  0  0  0  0  0
    5.9896   -5.6678   25.7844 C   0  0  0  0  0  0  0  0  0  0  0  0
    6.7514    1.0385   20.7978 C   0  0  0  0  0  0  0  0  0  0  0  0
    7.1284   -4.9118   26.4032 C   0  0  1  0  0  0  0  0  0  0  0  0
    8.1699   -5.8241   27.0443 C   0  0  1  0  0  0  0  0  0  0  0  0
    9.0615   -6.4979   26.0023 C   0  0  1  0  0  0  0  0  0  0  0  0
    9.6302   -5.4749   25.0183 C   0  0  2  0  0  0  0  0  0  0  0  0
    8.4937   -4.6210   24.4333 C   0  0  2  0  0  0  0  0  0  0  0  0
    6.7540    2.1646   21.7777 C   0  0  0  0  0  0  0  0  0  0  0  0
   12.6153    1.5548   23.2532 C   0  0  0  0  0  0  0  0  0  0  0  0
    9.3362   -1.7110   20.3912 C   0  0  0  0  0  0  0  0  0  0  0  0
    8.0380   -0.9551   20.0544 C   0  0  0  0  0  0  0  0  0  0  0  0
    9.0275   -3.5031   23.5575 N   0  0  0  0  0  0  0  0  0  0  0  0
    7.8440    0.1925   20.8996 N   0  0  0  0  0  0  0  0  0  0  0  0
    5.6695   -5.6142   24.6063 O   0  0  0  0  0  0  0  0  0  0  0  0
    5.8265    0.9333   20.0007 O   0  0  0  0  0  0  0  0  0  0  0  0
    7.7003   -4.0166   25.4592 O   0  0  0  0  0  0  0  0  0  0  0  0
    5.3552   -6.4232   26.7140 O   0  0  0  0  0  0  0  0  0  0  0  0
    8.9707   -5.0059   27.9042 O   0  0  0  0  0  0  0  0  0  0  0  0
   10.1168   -7.1816   26.6742 O   0  0  0  0  0  0  0  0  0  0  0  0
   10.2762   -6.1673   23.9501 O   0  0  0  0  0  0  0  0  0  0  0  0
   12.3885    0.7447   24.4046 O   0  0  0  0  0  0  0  0  0  0  0  0
   10.2565   -2.9057   26.0720 H   0  0  0  0  0  0  0  0  0  0  0  0
   11.7569   -0.9450   26.3072 H   0  0  0  0  0  0  0  0  0  0  0  0
   11.1910    0.0708   22.1620 H   0  0  0  0  0  0  0  0  0  0  0  0
    8.0620   -4.0430   21.7283 H   0  0  0  0  0  0  0  0  0  0  0  0
    6.6788   -4.2765   27.1836 H   0  0  0  0  0  0  0  0  0  0  0  0
    7.6976   -6.5801   27.6827 H   0  0  0  0  0  0  0  0  0  0  0  0
    8.4867   -7.2572   25.4599 H   0  0  0  0  0  0  0  0  0  0  0  0
   10.3840   -4.8501   25.5139 H   0  0  0  0  0  0  0  0  0  0  0  0
    7.8549   -5.2039   23.7449 H   0  0  0  0  0  0  0  0  0  0  0  0
    7.2644    3.0600   21.3879 H   0  0  0  0  0  0  0  0  0  0  0  0
    5.7366    2.4991   22.0366 H   0  0  0  0  0  0  0  0  0  0  0  0
    7.2421    1.9494   22.7417 H   0  0  0  0  0  0  0  0  0  0  0  0
   13.2919    2.3735   23.5103 H   0  0  0  0  0  0  0  0  0  0  0  0
   11.6633    1.9538   22.8941 H   0  0  0  0  0  0  0  0  0  0  0  0
   13.0694    0.9417   22.4712 H   0  0  0  0  0  0  0  0  0  0  0  0
    9.4440   -2.5404   19.6646 H   0  0  0  0  0  0  0  0  0  0  0  0
   10.1977   -1.0452   20.1816 H   0  0  0  0  0  0  0  0  0  0  0  0
    8.0535   -0.5885   19.0231 H   0  0  0  0  0  0  0  0  0  0  0  0
    7.1641   -1.6041   20.1729 H   0  0  0  0  0  0  0  0  0  0  0  0
    8.5462    0.3936   21.6098 H   0  0  0  0  0  0  0  0  0  0  0  0
    4.6051   -6.9246   26.3289 H   0  0  0  0  0  0  0  0  0  0  0  0
    8.3649   -4.6272   28.5572 H   0  0  0  0  0  0  0  0  0  0  0  0
    9.6969   -7.8363   27.2532 H   0  0  0  0  0  0  0  0  0  0  0  0
    9.5978   -6.7176   23.5303 H   0  0  0  0  0  0  0  0  0  0  0  0
  1  2  2  0  0  0  0
  1  7  1  0  0  0  0
  1 30  1  0  0  0  0
  2  8  1  0  0  0  0
  2 31  1  0  0  0  0
  3  5  1  0  0  0  0
  3  8  2  0  0  0  0
  3 32  1  0  0  0  0
  4  6  2  0  0  0  0
  4 20  1  0  0  0  0
  4 33  1  0  0  0  0
  5  6  1  0  0  0  0
  5  7  2  0  0  0  0
  6 18  1  0  0  0  0
  7 20  1  0  0  0  0
  8 29  1  0  0  0  0
  9 11  1  0  0  0  0
  9 22  2  0  0  0  0
  9 25  1  0  0  0  0
 10 16  1  0  0  0  0
 10 21  1  0  0  0  0
 10 23  2  0  0  0  0
 11 12  1  0  0  0  0
 11 24  1  0  0  0  0
 11 34  1  1  0  0  0
 12 13  1  0  0  0  0
 12 26  1  0  0  0  0
 12 35  1  1  0  0  0
 13 14  1  0  0  0  0
 13 27  1  0  0  0  0
 13 36  1  6  0  0  0
 14 15  1  0  0  0  0
 14 28  1  0  0  0  0
 14 37  1  1  0  0  0
 15 20  1  0  0  0  0
 15 24  1  0  0  0  0
 15 38  1  6  0  0  0
 16 39  1  0  0  0  0
 16 40  1  0  0  0  0
 16 41  1  0  0  0  0
 17 29  1  0  0  0  0
 17 42  1  0  0  0  0
 17 43  1  0  0  0  0
 17 44  1  0  0  0  0
 18 19  1  0  0  0  0
 18 45  1  0  0  0  0
 18 46  1  0  0  0  0
 19 21  1  0  0  0  0
 19 47  1  0  0  0  0
 19 48  1  0  0  0  0
 21 49  1  0  0  0  0
 25 50  1  0  0  0  0
 26 51  1  0  0  0  0
 27 52  1  0  0  0  0
 28 53  1  0  0  0  0
M  END
>  <Chemgauss4 Score>
-5.20731592178345

>  <Number of Confs>
200

$$$$
