CHR-SOS-b30-6
 OpenBabel03242009303D

 44 46  0  0  0  0  0  0  0  0999 V2000
    8.1137   -2.8670   23.1245 C   0  0  0  0  0  0  0  0  0  0  0  0
    9.2435   -2.5150   23.3303 C   0  0  0  0  0  0  0  0  0  0  0  0
    4.7186   -3.2176   21.6959 C   0  0  0  0  0  0  0  0  0  0  0  0
    6.8775   -5.9909   27.4374 C   0  0  0  0  0  0  0  0  0  0  0  0
    6.0104   -2.7494   21.8594 C   0  0  0  0  0  0  0  0  0  0  0  0
    7.7554   -5.5928   26.4354 C   0  0  0  0  0  0  0  0  0  0  0  0
    6.9760   -5.3679   28.6711 C   0  0  0  0  0  0  0  0  0  0  0  0
    4.2708   -4.1941   22.5627 C   0  0  0  0  0  0  0  0  0  0  0  0
    8.7088   -4.0371   27.9608 C   0  0  0  0  0  0  0  0  0  0  0  0
    6.7689   -3.2885   22.8791 C   0  0  0  0  0  0  0  0  0  0  0  0
    8.6917   -4.5979   26.6940 C   0  0  0  0  0  0  0  0  0  0  0  0
   10.5841   -3.1950   25.8036 C   0  0  0  0  0  0  0  0  0  0  0  0
   12.7788    0.0049   23.0445 C   0  0  0  0  0  0  0  0  0  0  0  0
   12.8445   -1.3674   22.3837 C   0  0  0  0  0  0  0  0  0  0  0  0
   12.0705   -0.0537   24.3931 C   0  0  0  0  0  0  0  0  0  0  0  0
   11.4569   -1.9998   22.2547 C   0  0  0  0  0  0  0  0  0  0  0  0
   10.6789   -0.6792   24.2740 C   0  0  0  0  0  0  0  0  0  0  0  0
   10.6908   -2.0653   23.5937 C   0  0  0  0  0  0  0  0  0  0  0  0
   11.3234   -3.0622   24.4893 C   0  0  0  0  0  0  0  0  0  0  0  0
    7.8722   -4.3978   28.9597 N   0  0  0  0  0  0  0  0  0  0  0  0
    5.0350   -4.7037   23.5519 N   0  0  0  0  0  0  0  0  0  0  0  0
    6.3046   -4.2432   23.7128 N   0  0  0  0  0  0  0  0  0  0  0  0
    9.5985   -4.1718   25.6945 N   0  0  0  0  0  0  0  0  0  0  0  0
   10.8555   -2.5164   26.7887 O   0  0  0  0  0  0  0  0  0  0  0  0
    4.0786   -2.8298   20.9116 H   0  0  0  0  0  0  0  0  0  0  0  0
    6.1396   -6.7645   27.2583 H   0  0  0  0  0  0  0  0  0  0  0  0
    6.4017   -1.9821   21.1992 H   0  0  0  0  0  0  0  0  0  0  0  0
    7.7014   -6.0640   25.4575 H   0  0  0  0  0  0  0  0  0  0  0  0
    6.3147   -5.6431   29.4861 H   0  0  0  0  0  0  0  0  0  0  0  0
    3.2696   -4.6019   22.4866 H   0  0  0  0  0  0  0  0  0  0  0  0
    9.4164   -3.2561   28.2230 H   0  0  0  0  0  0  0  0  0  0  0  0
   13.7960    0.3922   23.1830 H   0  0  0  0  0  0  0  0  0  0  0  0
   12.2579    0.7075   22.3844 H   0  0  0  0  0  0  0  0  0  0  0  0
   13.3074   -1.2771   21.3935 H   0  0  0  0  0  0  0  0  0  0  0  0
   13.4921   -2.0260   22.9739 H   0  0  0  0  0  0  0  0  0  0  0  0
   12.6741   -0.6378   25.0973 H   0  0  0  0  0  0  0  0  0  0  0  0
   11.9911    0.9572   24.8111 H   0  0  0  0  0  0  0  0  0  0  0  0
   10.8796   -1.4402   21.5068 H   0  0  0  0  0  0  0  0  0  0  0  0
   11.5802   -3.0157   21.8555 H   0  0  0  0  0  0  0  0  0  0  0  0
   10.2590   -0.7731   25.2847 H   0  0  0  0  0  0  0  0  0  0  0  0
   10.0238    0.0128   23.7286 H   0  0  0  0  0  0  0  0  0  0  0  0
   12.3498   -2.7514   24.6816 H   0  0  0  0  0  0  0  0  0  0  0  0
   11.3338   -4.0258   23.9811 H   0  0  0  0  0  0  0  0  0  0  0  0
    9.5087   -4.6427   24.7965 H   0  0  0  0  0  0  0  0  0  0  0  0
  1  2  3  0  0  0  0
  1 10  1  0  0  0  0
  2 18  1  0  0  0  0
  3  5  2  0  0  0  0
  3  8  1  0  0  0  0
  3 25  1  0  0  0  0
  4  6  2  0  0  0  0
  4  7  1  0  0  0  0
  4 26  1  0  0  0  0
  5 10  1  0  0  0  0
  5 27  1  0  0  0  0
  6 11  1  0  0  0  0
  6 28  1  0  0  0  0
  7 20  2  0  0  0  0
  7 29  1  0  0  0  0
  8 21  2  0  0  0  0
  8 30  1  0  0  0  0
  9 11  2  0  0  0  0
  9 20  1  0  0  0  0
  9 31  1  0  0  0  0
 10 22  2  0  0  0  0
 11 23  1  0  0  0  0
 12 19  1  0  0  0  0
 12 23  1  0  0  0  0
 12 24  2  0  0  0  0
 13 14  1  0  0  0  0
 13 15  1  0  0  0  0
 13 32  1  0  0  0  0
 13 33  1  0  0  0  0
 14 16  1  0  0  0  0
 14 34  1  0  0  0  0
 14 35  1  0  0  0  0
 15 17  1  0  0  0  0
 15 36  1  0  0  0  0
 15 37  1  0  0  0  0
 16 18  1  0  0  0  0
 16 38  1  0  0  0  0
 16 39  1  0  0  0  0
 17 18  1  0  0  0  0
 17 40  1  0  0  0  0
 17 41  1  0  0  0  0
 18 19  1  0  0  0  0
 19 42  1  0  0  0  0
 19 43  1  0  0  0  0
 21 22  1  0  0  0  0
 23 44  1  0  0  0  0
M  END
>  <Chemgauss4 Score>
-4.76772880554199

>  <Number of Confs>
76

$$$$
