JOH-MEM-5e3-3
 OpenBabel03242009303D

 53 55  0  0  1  0  0  0  0  0999 V2000
    7.3706   -1.5072   23.0477 C   0  0  0  0  0  0  0  0  0  0  0  0
    6.9988   -0.5808   22.0693 C   0  0  0  0  0  0  0  0  0  0  0  0
    9.2607   -0.5165   21.1881 C   0  0  0  0  0  0  0  0  0  0  0  0
   10.6684   -2.9133   23.5618 C   0  0  0  0  0  0  0  0  0  0  0  0
    9.6590   -1.4499   22.1656 C   0  0  0  0  0  0  0  0  0  0  0  0
   10.8918   -2.0837   22.4872 C   0  0  0  0  0  0  0  0  0  0  0  0
    8.7067   -1.9228   23.0711 C   0  0  0  0  0  0  0  0  0  0  0  0
    7.9276   -0.0918   21.1528 C   0  0  0  0  0  0  0  0  0  0  0  0
    8.4119   -3.4808   28.0968 C   0  0  0  0  0  0  0  0  0  0  0  0
   12.7050    0.5284   24.3752 C   0  0  0  0  0  0  0  0  0  0  0  0
    9.2592   -4.3868   27.2525 C   0  0  1  0  0  0  0  0  0  0  0  0
    8.6082   -5.7446   26.9667 C   0  0  1  0  0  0  0  0  0  0  0  0
    7.6147   -5.7120   25.8039 C   0  0  2  0  0  0  0  0  0  0  0  0
    8.2008   -4.9506   24.6115 C   0  0  2  0  0  0  0  0  0  0  0  0
    8.7008   -3.5676   25.0506 C   0  0  2  0  0  0  0  0  0  0  0  0
   13.1473    0.4298   25.7974 C   0  0  0  0  0  0  0  0  0  0  0  0
    6.1640    1.2045   20.2226 C   0  0  0  0  0  0  0  0  0  0  0  0
   12.1849   -1.8913   21.8000 C   0  0  0  0  0  0  0  0  0  0  0  0
   12.8925   -0.5702   22.1525 C   0  0  0  0  0  0  0  0  0  0  0  0
    9.3475   -2.8096   23.9066 N   0  0  0  0  0  0  0  0  0  0  0  0
   13.1957   -0.4751   23.5553 N   0  0  0  0  0  0  0  0  0  0  0  0
    8.0510   -2.3579   27.7771 O   0  0  0  0  0  0  0  0  0  0  0  0
   11.9681    1.4461   24.0339 O   0  0  0  0  0  0  0  0  0  0  0  0
    9.6811   -3.6964   26.0850 O   0  0  0  0  0  0  0  0  0  0  0  0
    8.0989   -4.0769   29.2732 O   0  0  0  0  0  0  0  0  0  0  0  0
    9.6587   -6.6609   26.6485 O   0  0  0  0  0  0  0  0  0  0  0  0
    6.4084   -5.0742   26.2207 O   0  0  0  0  0  0  0  0  0  0  0  0
    7.2066   -4.8100   23.6008 O   0  0  0  0  0  0  0  0  0  0  0  0
    7.5343    0.8102   20.2097 O   0  0  0  0  0  0  0  0  0  0  0  0
    6.6433   -1.8845   23.7589 H   0  0  0  0  0  0  0  0  0  0  0  0
    5.9659   -0.2425   22.0280 H   0  0  0  0  0  0  0  0  0  0  0  0
    9.9773   -0.1290   20.4690 H   0  0  0  0  0  0  0  0  0  0  0  0
   11.3375   -3.5636   24.1097 H   0  0  0  0  0  0  0  0  0  0  0  0
   10.2106   -4.5808   27.9020 H   0  0  0  0  0  0  0  0  0  0  0  0
    8.1177   -6.1454   27.8754 H   0  0  0  0  0  0  0  0  0  0  0  0
    7.3539   -6.7297   25.5097 H   0  0  0  0  0  0  0  0  0  0  0  0
    9.0222   -5.5440   24.1766 H   0  0  0  0  0  0  0  0  0  0  0  0
    7.9135   -2.9289   25.3910 H   0  0  0  0  0  0  0  0  0  0  0  0
   14.0865    0.9749   25.9845 H   0  0  0  0  0  0  0  0  0  0  0  0
   12.4146    0.8637   26.4967 H   0  0  0  0  0  0  0  0  0  0  0  0
   13.3278   -0.5930   26.1651 H   0  0  0  0  0  0  0  0  0  0  0  0
    5.9840    1.9253   19.4213 H   0  0  0  0  0  0  0  0  0  0  0  0
    5.9215    1.6511   21.1902 H   0  0  0  0  0  0  0  0  0  0  0  0
    5.5389    0.3227   20.0636 H   0  0  0  0  0  0  0  0  0  0  0  0
   12.0390   -1.9155   20.7020 H   0  0  0  0  0  0  0  0  0  0  0  0
   12.8797   -2.7305   22.0059 H   0  0  0  0  0  0  0  0  0  0  0  0
   13.8429   -0.4791   21.6172 H   0  0  0  0  0  0  0  0  0  0  0  0
   12.2690    0.2909   21.8902 H   0  0  0  0  0  0  0  0  0  0  0  0
   13.8027   -1.1820   23.9673 H   0  0  0  0  0  0  0  0  0  0  0  0
    7.5460   -3.4990   29.8412 H   0  0  0  0  0  0  0  0  0  0  0  0
    9.2345   -7.5140   26.4702 H   0  0  0  0  0  0  0  0  0  0  0  0
    6.0593   -5.5987   26.9578 H   0  0  0  0  0  0  0  0  0  0  0  0
    6.9496   -5.7083   23.3472 H   0  0  0  0  0  0  0  0  0  0  0  0
  1  2  2  0  0  0  0
  1  7  1  0  0  0  0
  1 30  1  0  0  0  0
  2  8  1  0  0  0  0
  2 31  1  0  0  0  0
  3  5  1  0  0  0  0
  3  8  2  0  0  0  0
  3 32  1  0  0  0  0
  4  6  2  0  0  0  0
  4 20  1  0  0  0  0
  4 33  1  0  0  0  0
  5  6  1  0  0  0  0
  5  7  2  0  0  0  0
  6 18  1  0  0  0  0
  7 20  1  0  0  0  0
  8 29  1  0  0  0  0
  9 11  1  0  0  0  0
  9 22  2  0  0  0  0
  9 25  1  0  0  0  0
 10 16  1  0  0  0  0
 10 21  1  0  0  0  0
 10 23  2  0  0  0  0
 11 12  1  0  0  0  0
 11 24  1  0  0  0  0
 11 34  1  1  0  0  0
 12 13  1  0  0  0  0
 12 26  1  0  0  0  0
 12 35  1  1  0  0  0
 13 14  1  0  0  0  0
 13 27  1  0  0  0  0
 13 36  1  6  0  0  0
 14 15  1  0  0  0  0
 14 28  1  0  0  0  0
 14 37  1  6  0  0  0
 15 20  1  0  0  0  0
 15 24  1  0  0  0  0
 15 38  1  1  0  0  0
 16 39  1  0  0  0  0
 16 40  1  0  0  0  0
 16 41  1  0  0  0  0
 17 29  1  0  0  0  0
 17 42  1  0  0  0  0
 17 43  1  0  0  0  0
 17 44  1  0  0  0  0
 18 19  1  0  0  0  0
 18 45  1  0  0  0  0
 18 46  1  0  0  0  0
 19 21  1  0  0  0  0
 19 47  1  0  0  0  0
 19 48  1  0  0  0  0
 21 49  1  0  0  0  0
 25 50  1  0  0  0  0
 26 51  1  0  0  0  0
 27 52  1  0  0  0  0
 28 53  1  0  0  0  0
M  END
>  <Chemgauss4 Score>
-4.99603080749512

>  <Number of Confs>
200

$$$$
