TRY-UNI-714-6
 OpenBabel03242009303D

 31 32  0  0  0  0  0  0  0  0999 V2000
   11.3635    0.2947   24.2924 C   0  0  0  0  0  0  0  0  0  0  0  0
   10.1491   -0.3553   24.0724 C   0  0  0  0  0  0  0  0  0  0  0  0
   12.4978   -0.0850   23.5748 C   0  0  0  0  0  0  0  0  0  0  0  0
    8.2623   -4.1556   28.6362 C   0  0  0  0  0  0  0  0  0  0  0  0
   11.2034   -1.7648   22.4174 C   0  0  0  0  0  0  0  0  0  0  0  0
    8.0568   -5.4970   28.3566 C   0  0  0  0  0  0  0  0  0  0  0  0
    8.1840   -5.1363   26.0912 C   0  0  0  0  0  0  0  0  0  0  0  0
   10.0691   -1.3851   23.1349 C   0  0  0  0  0  0  0  0  0  0  0  0
    8.4339   -3.2862   27.5647 C   0  0  0  0  0  0  0  0  0  0  0  0
    8.3953   -3.7779   26.2647 C   0  0  0  0  0  0  0  0  0  0  0  0
   12.4178   -1.1148   22.6374 C   0  0  0  0  0  0  0  0  0  0  0  0
    8.5487   -3.2965   23.7970 C   0  0  0  0  0  0  0  0  0  0  0  0
    8.6567   -1.8348   27.8372 C   0  0  0  0  0  0  0  0  0  0  0  0
    8.7705   -2.0804   22.9012 C   0  0  0  0  0  0  0  0  0  0  0  0
    8.0130   -6.0116   27.1073 N   0  0  0  0  0  0  0  0  0  0  0  0
    8.5648   -2.9339   25.1415 N   0  0  0  0  0  0  0  0  0  0  0  0
    8.3855   -4.4202   23.3325 O   0  0  0  0  0  0  0  0  0  0  0  0
   13.8178   -1.5836   21.7532 Cl  0  0  0  0  0  0  0  0  0  0  0  0
   11.4255    1.0964   25.0225 H   0  0  0  0  0  0  0  0  0  0  0  0
    9.2704   -0.0529   24.6361 H   0  0  0  0  0  0  0  0  0  0  0  0
   13.4377    0.4302   23.7569 H   0  0  0  0  0  0  0  0  0  0  0  0
    8.2868   -3.8039   29.6621 H   0  0  0  0  0  0  0  0  0  0  0  0
   11.1356   -2.5680   21.6872 H   0  0  0  0  0  0  0  0  0  0  0  0
    7.9173   -6.2161   29.1571 H   0  0  0  0  0  0  0  0  0  0  0  0
    8.1440   -5.5800   25.1008 H   0  0  0  0  0  0  0  0  0  0  0  0
    9.7283   -1.6273   27.9379 H   0  0  0  0  0  0  0  0  0  0  0  0
    8.2547   -1.2133   27.0276 H   0  0  0  0  0  0  0  0  0  0  0  0
    8.1518   -1.5228   28.7599 H   0  0  0  0  0  0  0  0  0  0  0  0
    7.9297   -1.3845   23.0573 H   0  0  0  0  0  0  0  0  0  0  0  0
    8.6978   -2.4108   21.8519 H   0  0  0  0  0  0  0  0  0  0  0  0
    8.7161   -1.9469   25.3393 H   0  0  0  0  0  0  0  0  0  0  0  0
  1  2  2  0  0  0  0
  1  3  1  0  0  0  0
  1 19  1  0  0  0  0
  2  8  1  0  0  0  0
  2 20  1  0  0  0  0
  3 11  2  0  0  0  0
  3 21  1  0  0  0  0
  4  6  2  0  0  0  0
  4  9  1  0  0  0  0
  4 22  1  0  0  0  0
  5  8  2  0  0  0  0
  5 11  1  0  0  0  0
  5 23  1  0  0  0  0
  6 15  1  0  0  0  0
  6 24  1  0  0  0  0
  7 10  1  0  0  0  0
  7 15  2  0  0  0  0
  7 25  1  0  0  0  0
  8 14  1  0  0  0  0
  9 10  2  0  0  0  0
  9 13  1  0  0  0  0
 10 16  1  0  0  0  0
 11 18  1  0  0  0  0
 12 14  1  0  0  0  0
 12 16  1  0  0  0  0
 12 17  2  0  0  0  0
 13 26  1  0  0  0  0
 13 27  1  0  0  0  0
 13 28  1  0  0  0  0
 14 29  1  0  0  0  0
 14 30  1  0  0  0  0
 16 31  1  0  0  0  0
M  END
>  <Chemgauss4 Score>
-6.60123872756958

>  <Number of Confs>
20

$$$$
