PAU-WEI-b9b-3
 OpenBabel03242009303D

 53 55  0  0  1  0  0  0  0  0999 V2000
   11.9422   -0.0130   24.3545 C   0  0  0  0  0  0  0  0  0  0  0  0
   10.7237   -0.6836   24.2500 C   0  0  0  0  0  0  0  0  0  0  0  0
    6.9250    0.3365   17.9545 C   0  0  0  0  0  0  0  0  0  0  0  0
    5.0849    0.5286   19.5082 C   0  0  0  0  0  0  0  0  0  0  0  0
    7.7808    0.0144   19.0078 C   0  0  0  0  0  0  0  0  0  0  0  0
    5.9406    0.2064   20.5615 C   0  0  0  0  0  0  0  0  0  0  0  0
   12.9068   -0.1598   23.3576 C   0  0  0  0  0  0  0  0  0  0  0  0
   11.4343   -1.6480   22.1519 C   0  0  0  0  0  0  0  0  0  0  0  0
    5.5770    0.5937   18.2047 C   0  0  0  0  0  0  0  0  0  0  0  0
    7.2886   -0.0507   20.3113 C   0  0  0  0  0  0  0  0  0  0  0  0
   10.4697   -1.5011   23.1488 C   0  0  0  0  0  0  0  0  0  0  0  0
   12.6528   -0.9773   22.2564 C   0  0  0  0  0  0  0  0  0  0  0  0
    7.2745   -5.5598   26.3199 C   0  0  0  0  0  0  0  0  0  0  0  0
    9.0546   -4.0090   25.5926 C   0  0  0  0  0  0  0  0  0  0  0  0
    7.1565   -4.4028   24.0626 C   0  0  0  0  0  0  0  0  0  0  0  0
   10.0010   -4.0614   24.3924 C   0  0  0  0  0  0  0  0  0  0  0  0
    8.1453   -4.4419   22.8946 C   0  0  0  0  0  0  0  0  0  0  0  0
    4.6614    0.9383   17.0791 C   0  0  0  0  0  0  0  0  0  0  0  0
    8.2138   -0.4007   21.4489 C   0  0  0  0  0  0  0  0  0  0  0  0
    5.7749   -5.7195   26.3204 C   0  0  0  0  0  0  0  0  0  0  0  0
    8.3296   -1.9002   21.7694 C   0  0  0  0  0  0  0  0  0  0  0  0
    9.1475   -2.2296   23.0368 C   0  0  1  0  0  0  0  0  0  0  0  0
    7.8145   -4.7388   25.3295 N   0  0  0  0  0  0  0  0  0  0  0  0
    9.3740   -3.6702   23.1231 N   0  0  0  0  0  0  0  0  0  0  0  0
    7.9445   -6.1496   27.1714 O   0  0  0  0  0  0  0  0  0  0  0  0
   13.8437   -1.1590   21.0273 Cl  0  0  0  0  0  0  0  0  0  0  0  0
    5.0976   -4.1152   26.5761 Cl  0  0  0  0  0  0  0  0  0  0  0  0
   12.1397    0.6235   25.2123 H   0  0  0  0  0  0  0  0  0  0  0  0
    9.9779   -0.5634   25.0316 H   0  0  0  0  0  0  0  0  0  0  0  0
    7.3173    0.3856   16.9421 H   0  0  0  0  0  0  0  0  0  0  0  0
    4.0357    0.7264   19.7119 H   0  0  0  0  0  0  0  0  0  0  0  0
    8.8291   -0.1860   18.8034 H   0  0  0  0  0  0  0  0  0  0  0  0
    5.5490    0.1580   21.5742 H   0  0  0  0  0  0  0  0  0  0  0  0
   13.8522    0.3688   23.4523 H   0  0  0  0  0  0  0  0  0  0  0  0
   11.2312   -2.2862   21.2950 H   0  0  0  0  0  0  0  0  0  0  0  0
    9.5226   -4.4775   26.4696 H   0  0  0  0  0  0  0  0  0  0  0  0
    8.8641   -2.9639   25.8532 H   0  0  0  0  0  0  0  0  0  0  0  0
    6.6908   -3.4144   24.1197 H   0  0  0  0  0  0  0  0  0  0  0  0
    6.3541   -5.1349   23.9127 H   0  0  0  0  0  0  0  0  0  0  0  0
   10.8903   -3.4284   24.6008 H   0  0  0  0  0  0  0  0  0  0  0  0
   10.3869   -5.0977   24.3078 H   0  0  0  0  0  0  0  0  0  0  0  0
    8.4072   -5.5048   22.7072 H   0  0  0  0  0  0  0  0  0  0  0  0
    7.6317   -4.0976   21.9690 H   0  0  0  0  0  0  0  0  0  0  0  0
    4.2123    0.0295   16.6601 H   0  0  0  0  0  0  0  0  0  0  0  0
    3.8541    1.6038   17.4115 H   0  0  0  0  0  0  0  0  0  0  0  0
    5.1961    1.4638   16.2771 H   0  0  0  0  0  0  0  0  0  0  0  0
    7.8433    0.1202   22.3418 H   0  0  0  0  0  0  0  0  0  0  0  0
    9.2156    0.0073   21.2642 H   0  0  0  0  0  0  0  0  0  0  0  0
    5.4918   -6.3771   27.1343 H   0  0  0  0  0  0  0  0  0  0  0  0
    5.4625   -6.1064   25.3572 H   0  0  0  0  0  0  0  0  0  0  0  0
    8.7048   -2.4574   20.9026 H   0  0  0  0  0  0  0  0  0  0  0  0
    7.3054   -2.2662   21.9299 H   0  0  0  0  0  0  0  0  0  0  0  0
    8.5257   -1.9917   23.9090 H   0  0  0  0  0  0  0  0  0  0  0  0
  1  2  2  0  0  0  0
  1  7  1  0  0  0  0
  1 28  1  0  0  0  0
  2 11  1  0  0  0  0
  2 29  1  0  0  0  0
  3  5  2  0  0  0  0
  3  9  1  0  0  0  0
  3 30  1  0  0  0  0
  4  6  1  0  0  0  0
  4  9  2  0  0  0  0
  4 31  1  0  0  0  0
  5 10  1  0  0  0  0
  5 32  1  0  0  0  0
  6 10  2  0  0  0  0
  6 33  1  0  0  0  0
  7 12  2  0  0  0  0
  7 34  1  0  0  0  0
  8 11  2  0  0  0  0
  8 12  1  0  0  0  0
  8 35  1  0  0  0  0
  9 18  1  0  0  0  0
 10 19  1  0  0  0  0
 11 22  1  0  0  0  0
 12 26  1  0  0  0  0
 13 20  1  0  0  0  0
 13 23  1  0  0  0  0
 13 25  2  0  0  0  0
 14 16  1  0  0  0  0
 14 23  1  0  0  0  0
 14 36  1  0  0  0  0
 14 37  1  0  0  0  0
 15 17  1  0  0  0  0
 15 23  1  0  0  0  0
 15 38  1  0  0  0  0
 15 39  1  0  0  0  0
 16 24  1  0  0  0  0
 16 40  1  0  0  0  0
 16 41  1  0  0  0  0
 17 24  1  0  0  0  0
 17 42  1  0  0  0  0
 17 43  1  0  0  0  0
 18 44  1  0  0  0  0
 18 45  1  0  0  0  0
 18 46  1  0  0  0  0
 19 21  1  0  0  0  0
 19 47  1  0  0  0  0
 19 48  1  0  0  0  0
 20 27  1  0  0  0  0
 20 49  1  0  0  0  0
 20 50  1  0  0  0  0
 21 22  1  0  0  0  0
 21 51  1  0  0  0  0
 21 52  1  0  0  0  0
 22 24  1  0  0  0  0
 22 53  1  1  0  0  0
M  END
>  <Chemgauss4 Score>
-5.90205192565918

>  <Number of Confs>
182

$$$$
