GIA-UNK-995-11
 OpenBabel03242009303D

 32 33  0  0  0  0  0  0  0  0999 V2000
   13.1884   -1.3940   22.4305 C   0  0  0  0  0  0  0  0  0  0  0  0
   11.8787   -1.9235   22.5172 C   0  0  0  0  0  0  0  0  0  0  0  0
   13.2013   -0.2741   23.2291 C   0  0  0  0  0  0  0  0  0  0  0  0
   11.1847   -1.0895   23.3627 C   0  0  0  0  0  0  0  0  0  0  0  0
    9.8045   -1.1187   23.8324 C   0  0  0  0  0  0  0  0  0  0  0  0
    8.2129   -5.0948   26.6148 C   0  0  0  0  0  0  0  0  0  0  0  0
    8.0071   -2.6114   26.5548 C   0  0  0  0  0  0  0  0  0  0  0  0
   10.2732   -3.7433   26.3035 C   0  0  0  0  0  0  0  0  0  0  0  0
    8.0186   -2.3435   25.0495 C   0  0  0  0  0  0  0  0  0  0  0  0
   10.2028   -3.4507   24.8056 C   0  0  0  0  0  0  0  0  0  0  0  0
    8.8966   -3.7837   26.9666 C   0  0  0  0  0  0  0  0  0  0  0  0
    5.5847   -5.4538   25.9181 C   0  0  0  0  0  0  0  0  0  0  0  0
    9.3903   -2.2555   24.5501 N   0  0  0  0  0  0  0  0  0  0  0  0
    9.0512   -0.1720   23.5985 O   0  0  0  0  0  0  0  0  0  0  0  0
    8.7132   -5.9312   25.8725 O   0  0  0  0  0  0  0  0  0  0  0  0
   11.9838   -0.0817   23.8011 O   0  0  0  0  0  0  0  0  0  0  0  0
    5.9956   -6.5139   25.1723 F   0  0  0  0  0  0  0  0  0  0  0  0
    6.6357   -5.2987   27.3765 S   0  0  0  0  0  0  0  0  0  0  0  0
   14.0189   -1.7798   21.8571 H   0  0  0  0  0  0  0  0  0  0  0  0
   11.4928   -2.8036   22.0229 H   0  0  0  0  0  0  0  0  0  0  0  0
   13.9570    0.4552   23.4818 H   0  0  0  0  0  0  0  0  0  0  0  0
    8.3575   -1.7074   27.0697 H   0  0  0  0  0  0  0  0  0  0  0  0
    6.9737   -2.7785   26.8820 H   0  0  0  0  0  0  0  0  0  0  0  0
   10.8017   -4.6913   26.4607 H   0  0  0  0  0  0  0  0  0  0  0  0
   10.8752   -2.9616   26.7847 H   0  0  0  0  0  0  0  0  0  0  0  0
    7.5223   -3.1571   24.5076 H   0  0  0  0  0  0  0  0  0  0  0  0
    7.4643   -1.4245   24.8342 H   0  0  0  0  0  0  0  0  0  0  0  0
   11.2162   -3.3436   24.4104 H   0  0  0  0  0  0  0  0  0  0  0  0
    9.7373   -4.2834   24.2659 H   0  0  0  0  0  0  0  0  0  0  0  0
    9.0138   -3.7959   28.0439 H   0  0  0  0  0  0  0  0  0  0  0  0
    5.6505   -4.5583   25.2947 H   0  0  0  0  0  0  0  0  0  0  0  0
    4.5446   -5.6279   26.2056 H   0  0  0  0  0  0  0  0  0  0  0  0
  1  2  1  0  0  0  0
  1  3  2  0  0  0  0
  1 19  1  0  0  0  0
  2  4  2  0  0  0  0
  2 20  1  0  0  0  0
  3 16  1  0  0  0  0
  3 21  1  0  0  0  0
  4  5  1  0  0  0  0
  4 16  1  0  0  0  0
  5 13  1  0  0  0  0
  5 14  2  0  0  0  0
  6 11  1  0  0  0  0
  6 15  2  0  0  0  0
  6 18  1  0  0  0  0
  7  9  1  0  0  0  0
  7 11  1  0  0  0  0
  7 22  1  0  0  0  0
  7 23  1  0  0  0  0
  8 10  1  0  0  0  0
  8 11  1  0  0  0  0
  8 24  1  0  0  0  0
  8 25  1  0  0  0  0
  9 13  1  0  0  0  0
  9 26  1  0  0  0  0
  9 27  1  0  0  0  0
 10 13  1  0  0  0  0
 10 28  1  0  0  0  0
 10 29  1  0  0  0  0
 11 30  1  0  0  0  0
 12 17  1  0  0  0  0
 12 18  1  0  0  0  0
 12 31  1  0  0  0  0
 12 32  1  0  0  0  0
M  END
>  <Chemgauss4 Score>
-5.01153802871704

>  <Number of Confs>
200

$$$$
