ANN-UNI-263-7
 OpenBabel03242009303D

 37 39  0  0  1  0  0  0  0  0999 V2000
   12.0190    0.1790   24.0984 C   0  0  0  0  0  0  0  0  0  0  0  0
   11.5014   -1.3345   22.3023 C   0  0  0  0  0  0  0  0  0  0  0  0
    7.6022   -4.6090   23.2828 C   0  0  0  0  0  0  0  0  0  0  0  0
   13.3318    0.1703   23.6554 C   0  0  0  0  0  0  0  0  0  0  0  0
   12.8374   -1.2753   21.9396 C   0  0  0  0  0  0  0  0  0  0  0  0
    6.7340   -5.4820   22.6652 C   0  0  0  0  0  0  0  0  0  0  0  0
    6.0809   -5.0208   24.9912 C   0  0  0  0  0  0  0  0  0  0  0  0
    7.2240   -4.3418   24.6304 C   0  0  0  0  0  0  0  0  0  0  0  0
   11.0925   -0.5904   23.4034 C   0  0  0  0  0  0  0  0  0  0  0  0
    9.9022   -5.1351   25.6567 C   0  0  0  0  0  0  0  0  0  0  0  0
    8.0259   -1.9755   25.0314 C   0  0  0  0  0  0  0  0  0  0  0  0
   10.2486   -2.7455   24.8706 C   0  0  0  0  0  0  0  0  0  0  0  0
    7.9930   -3.4148   25.5592 C   0  0  2  0  0  0  0  0  0  0  0  0
    9.4863   -3.7022   25.7943 C   0  0  1  0  0  0  0  0  0  0  0  0
    9.6565   -0.6183   23.8406 C   0  0  0  0  0  0  0  0  0  0  0  0
   13.7665   -0.5395   22.5901 N   0  0  0  0  0  0  0  0  0  0  0  0
    9.2182   -1.9612   24.1834 N   0  0  0  0  0  0  0  0  0  0  0  0
   11.2337   -5.3538   25.9201 N   0  0  0  0  0  0  0  0  0  0  0  0
    9.1057   -6.0196   25.3520 O   0  0  0  0  0  0  0  0  0  0  0  0
    5.4689   -5.9758   23.7083 S   0  0  0  0  0  0  0  0  0  0  0  0
   11.7321    0.7698   24.9618 H   0  0  0  0  0  0  0  0  0  0  0  0
   10.8025   -1.9440   21.7399 H   0  0  0  0  0  0  0  0  0  0  0  0
    8.4662   -4.1841   22.7876 H   0  0  0  0  0  0  0  0  0  0  0  0
   14.0933    0.7528   24.1638 H   0  0  0  0  0  0  0  0  0  0  0  0
   13.2067   -1.8372   21.0881 H   0  0  0  0  0  0  0  0  0  0  0  0
    6.7815   -5.8530   21.6511 H   0  0  0  0  0  0  0  0  0  0  0  0
    5.5721   -5.0037   25.9451 H   0  0  0  0  0  0  0  0  0  0  0  0
    7.1348   -1.6977   24.4665 H   0  0  0  0  0  0  0  0  0  0  0  0
    8.1360   -1.2873   25.8748 H   0  0  0  0  0  0  0  0  0  0  0  0
   10.9089   -2.0940   25.4770 H   0  0  0  0  0  0  0  0  0  0  0  0
   10.8925   -3.2802   24.1470 H   0  0  0  0  0  0  0  0  0  0  0  0
    7.4702   -3.4089   26.5152 H   0  0  0  0  0  0  0  0  0  0  0  0
    9.7309   -3.4307   26.8753 H   0  0  0  0  0  0  0  0  0  0  0  0
    9.5078    0.0194   24.7189 H   0  0  0  0  0  0  0  0  0  0  0  0
    8.9978   -0.2426   23.0506 H   0  0  0  0  0  0  0  0  0  0  0  0
   11.8154   -4.5634   26.1779 H   0  0  0  0  0  0  0  0  0  0  0  0
   11.6582   -6.2741   25.8670 H   0  0  0  0  0  0  0  0  0  0  0  0
  1  4  2  0  0  0  0
  1  9  1  0  0  0  0
  1 21  1  0  0  0  0
  2  5  1  0  0  0  0
  2  9  2  0  0  0  0
  2 22  1  0  0  0  0
  3  6  2  0  0  0  0
  3  8  1  0  0  0  0
  3 23  1  0  0  0  0
  4 16  1  0  0  0  0
  4 24  1  0  0  0  0
  5 16  2  0  0  0  0
  5 25  1  0  0  0  0
  6 20  1  0  0  0  0
  6 26  1  0  0  0  0
  7  8  2  0  0  0  0
  7 20  1  0  0  0  0
  7 27  1  0  0  0  0
  8 13  1  0  0  0  0
  9 15  1  0  0  0  0
 10 14  1  0  0  0  0
 10 18  1  0  0  0  0
 10 19  2  0  0  0  0
 11 13  1  0  0  0  0
 11 17  1  0  0  0  0
 11 28  1  0  0  0  0
 11 29  1  0  0  0  0
 12 14  1  0  0  0  0
 12 17  1  0  0  0  0
 12 30  1  0  0  0  0
 12 31  1  0  0  0  0
 13 14  1  0  0  0  0
 13 32  1  1  0  0  0
 14 33  1  1  0  0  0
 15 17  1  0  0  0  0
 15 34  1  0  0  0  0
 15 35  1  0  0  0  0
 18 36  1  0  0  0  0
 18 37  1  0  0  0  0
M  END
>  <Chemgauss4 Score>
-5.78348684310913

>  <Number of Confs>
94

$$$$
