ROB-UNI-b2e-10
 OpenBabel03242009303D

 45 46  0  0  0  0  0  0  0  0999 V2000
   12.3091   -1.5775   22.6618 C   0  0  0  0  0  0  0  0  0  0  0  0
    8.5262   -3.6283   27.0283 C   0  0  0  0  0  0  0  0  0  0  0  0
   10.9620   -2.6303   24.4108 C   0  0  0  0  0  0  0  0  0  0  0  0
   10.3550   -0.4508   23.5993 C   0  0  0  0  0  0  0  0  0  0  0  0
    7.7383   -2.4955   26.9974 C   0  0  0  0  0  0  0  0  0  0  0  0
   11.2010   -1.5524   23.5632 C   0  0  0  0  0  0  0  0  0  0  0  0
    9.8732   -2.6087   25.2989 C   0  0  0  0  0  0  0  0  0  0  0  0
    9.6095   -3.6800   26.1631 C   0  0  0  0  0  0  0  0  0  0  0  0
    9.2727   -0.4296   24.4824 C   0  0  0  0  0  0  0  0  0  0  0  0
    9.0101   -1.4937   25.3409 C   0  0  0  0  0  0  0  0  0  0  0  0
    8.3987   -5.3236   23.6148 C   0  0  0  0  0  0  0  0  0  0  0  0
    8.3629   -5.1500   22.1326 C   0  0  0  0  0  0  0  0  0  0  0  0
    5.8505    1.0785   20.6103 C   0  0  0  0  0  0  0  0  0  0  0  0
   10.4634   -4.9084   26.1959 C   0  0  0  0  0  0  0  0  0  0  0  0
    8.3878    0.7787   24.4833 C   0  0  0  0  0  0  0  0  0  0  0  0
    9.8267   -6.1105   25.4920 C   0  0  0  0  0  0  0  0  0  0  0  0
    7.4269    0.8281   23.2921 C   0  0  0  0  0  0  0  0  0  0  0  0
   13.2093   -1.5978   21.9296 N   0  0  0  0  0  0  0  0  0  0  0  0
    7.9581   -1.4406   26.1796 N   0  0  0  0  0  0  0  0  0  0  0  0
    9.5811   -5.8618   24.0968 N   0  0  0  0  0  0  0  0  0  0  0  0
    8.1171    0.8252   22.0302 N   0  0  0  0  0  0  0  0  0  0  0  0
    7.4273   -4.9942   24.2853 O   0  0  0  0  0  0  0  0  0  0  0  0
    7.0366   -1.2374   20.8930 O   0  0  0  0  0  0  0  0  0  0  0  0
    8.1197    0.5233   19.4495 O   0  0  0  0  0  0  0  0  0  0  0  0
    7.3668    0.1499   20.6315 S   0  0  0  0  0  0  0  0  0  0  0  0
    8.2971   -4.4427   27.7064 H   0  0  0  0  0  0  0  0  0  0  0  0
   11.6317   -3.4876   24.3743 H   0  0  0  0  0  0  0  0  0  0  0  0
   10.5298    0.3988   22.9419 H   0  0  0  0  0  0  0  0  0  0  0  0
    6.8776   -2.3990   27.6512 H   0  0  0  0  0  0  0  0  0  0  0  0
    7.9672   -6.0383   21.6146 H   0  0  0  0  0  0  0  0  0  0  0  0
    7.7111   -4.3176   21.8224 H   0  0  0  0  0  0  0  0  0  0  0  0
    9.3365   -4.9477   21.6582 H   0  0  0  0  0  0  0  0  0  0  0  0
    5.2573    0.7498   19.7555 H   0  0  0  0  0  0  0  0  0  0  0  0
    5.3166    0.8874   21.5424 H   0  0  0  0  0  0  0  0  0  0  0  0
    6.0966    2.1376   20.5205 H   0  0  0  0  0  0  0  0  0  0  0  0
   10.6657   -5.1789   27.2443 H   0  0  0  0  0  0  0  0  0  0  0  0
   11.4503   -4.7016   25.7517 H   0  0  0  0  0  0  0  0  0  0  0  0
    9.0151    1.6835   24.4704 H   0  0  0  0  0  0  0  0  0  0  0  0
    7.8149    0.8324   25.4224 H   0  0  0  0  0  0  0  0  0  0  0  0
   10.4911   -6.9788   25.5457 H   0  0  0  0  0  0  0  0  0  0  0  0
    8.8712   -6.3829   25.9522 H   0  0  0  0  0  0  0  0  0  0  0  0
    6.7720   -0.0490   23.2957 H   0  0  0  0  0  0  0  0  0  0  0  0
    6.7980    1.7239   23.3226 H   0  0  0  0  0  0  0  0  0  0  0  0
   10.3143   -6.0933   23.4284 H   0  0  0  0  0  0  0  0  0  0  0  0
    8.7184    1.6564   21.8410 H   0  0  0  0  0  0  0  0  0  0  0  0
  1  6  1  0  0  0  0
  1 18  3  0  0  0  0
  2  5  2  0  0  0  0
  2  8  1  0  0  0  0
  2 26  1  0  0  0  0
  3  6  2  0  0  0  0
  3  7  1  0  0  0  0
  3 27  1  0  0  0  0
  4  6  1  0  0  0  0
  4  9  2  0  0  0  0
  4 28  1  0  0  0  0
  5 19  1  0  0  0  0
  5 29  1  0  0  0  0
  7  8  2  0  0  0  0
  7 10  1  0  0  0  0
  8 14  1  0  0  0  0
  9 10  1  0  0  0  0
  9 15  1  0  0  0  0
 10 19  2  0  0  0  0
 11 12  1  0  0  0  0
 11 20  1  0  0  0  0
 11 22  2  0  0  0  0
 12 30  1  0  0  0  0
 12 31  1  0  0  0  0
 12 32  1  0  0  0  0
 13 25  1  0  0  0  0
 13 33  1  0  0  0  0
 13 34  1  0  0  0  0
 13 35  1  0  0  0  0
 14 16  1  0  0  0  0
 14 36  1  0  0  0  0
 14 37  1  0  0  0  0
 15 17  1  0  0  0  0
 15 38  1  0  0  0  0
 15 39  1  0  0  0  0
 16 20  1  0  0  0  0
 16 40  1  0  0  0  0
 16 41  1  0  0  0  0
 17 21  1  0  0  0  0
 17 42  1  0  0  0  0
 17 43  1  0  0  0  0
 20 44  1  0  0  0  0
 21 25  1  0  0  0  0
 21 45  1  0  0  0  0
 23 25  2  0  0  0  0
 24 25  2  0  0  0  0
M  END
>  <Chemgauss4 Score>
-5.15886974334717

>  <Number of Confs>
200

$$$$
