SAM-UNK-83e-1
 OpenBabel03242009303D

 46 48  0  0  0  0  0  0  0  0999 V2000
    9.8296   -1.3316   22.3460 C   0  0  0  0  0  0  0  0  0  0  0  0
   11.2893   -2.6807   23.7411 C   0  0  0  0  0  0  0  0  0  0  0  0
    6.9061   -1.5410   24.5300 C   0  0  0  0  0  0  0  0  0  0  0  0
    8.7914   -1.5005   23.2836 C   0  0  0  0  0  0  0  0  0  0  0  0
    7.4428   -1.0530   23.3609 C   0  0  0  0  0  0  0  0  0  0  0  0
   10.2746   -2.8620   24.6852 C   0  0  0  0  0  0  0  0  0  0  0  0
    9.0374   -2.2603   24.4293 C   0  0  0  0  0  0  0  0  0  0  0  0
   11.0725   -1.9277   22.5888 C   0  0  0  0  0  0  0  0  0  0  0  0
    6.7392   -0.2537   22.4334 C   0  0  0  0  0  0  0  0  0  0  0  0
    6.9417   -0.2588   21.0967 C   0  0  0  0  0  0  0  0  0  0  0  0
    6.5622    0.4049   18.7964 C   0  0  0  0  0  0  0  0  0  0  0  0
    8.3053   -4.7505   28.7557 C   0  0  0  0  0  0  0  0  0  0  0  0
    7.3113   -5.5035   26.5851 C   0  0  0  0  0  0  0  0  0  0  0  0
    9.5923   -4.4111   28.0047 C   0  0  0  0  0  0  0  0  0  0  0  0
    8.6288   -5.1416   25.9007 C   0  0  0  0  0  0  0  0  0  0  0  0
    7.5285   -5.8594   28.0532 C   0  0  2  0  0  0  0  0  0  0  0  0
    5.7113    1.3493   17.9881 C   0  0  0  0  0  0  0  0  0  0  0  0
   10.5436   -3.6794   25.9156 C   0  0  0  0  0  0  0  0  0  0  0  0
    7.8755   -2.2677   25.1676 N   0  0  0  0  0  0  0  0  0  0  0  0
    9.3092   -4.0477   26.6087 N   0  0  0  0  0  0  0  0  0  0  0  0
    6.2878    0.4734   20.1556 N   0  0  0  0  0  0  0  0  0  0  0  0
    7.4116   -0.3077   18.2663 O   0  0  0  0  0  0  0  0  0  0  0  0
    6.2753   -6.0301   28.7029 O   0  0  0  0  0  0  0  0  0  0  0  0
   12.0648   -1.7716   21.7018 F   0  0  0  0  0  0  0  0  0  0  0  0
    9.6781   -0.7484   21.4422 H   0  0  0  0  0  0  0  0  0  0  0  0
   12.2664   -3.1313   23.9004 H   0  0  0  0  0  0  0  0  0  0  0  0
    5.9232   -1.4394   24.9701 H   0  0  0  0  0  0  0  0  0  0  0  0
    5.9430    0.4053   22.8047 H   0  0  0  0  0  0  0  0  0  0  0  0
    7.6829   -0.8985   20.6319 H   0  0  0  0  0  0  0  0  0  0  0  0
    8.5375   -5.0546   29.7837 H   0  0  0  0  0  0  0  0  0  0  0  0
    7.6754   -3.8553   28.8467 H   0  0  0  0  0  0  0  0  0  0  0  0
    6.6033   -4.6676   26.5062 H   0  0  0  0  0  0  0  0  0  0  0  0
    6.8364   -6.3445   26.0657 H   0  0  0  0  0  0  0  0  0  0  0  0
   10.0752   -3.5702   28.5169 H   0  0  0  0  0  0  0  0  0  0  0  0
   10.2833   -5.2628   28.0541 H   0  0  0  0  0  0  0  0  0  0  0  0
    9.2714   -6.0303   25.8450 H   0  0  0  0  0  0  0  0  0  0  0  0
    8.4057   -4.8352   24.8714 H   0  0  0  0  0  0  0  0  0  0  0  0
    8.0817   -6.8027   28.1330 H   0  0  0  0  0  0  0  0  0  0  0  0
    6.2200    2.3133   17.8997 H   0  0  0  0  0  0  0  0  0  0  0  0
    4.7514    1.4897   18.4923 H   0  0  0  0  0  0  0  0  0  0  0  0
    5.5375    0.9580   16.9816 H   0  0  0  0  0  0  0  0  0  0  0  0
   11.0738   -4.6026   25.6575 H   0  0  0  0  0  0  0  0  0  0  0  0
   11.1734   -3.1295   26.6228 H   0  0  0  0  0  0  0  0  0  0  0  0
    7.7550   -2.7411   26.0524 H   0  0  0  0  0  0  0  0  0  0  0  0
    5.5548    1.1084   20.4657 H   0  0  0  0  0  0  0  0  0  0  0  0
    5.8105   -6.7400   28.2315 H   0  0  0  0  0  0  0  0  0  0  0  0
  1  4  1  0  0  0  0
  1  8  2  0  0  0  0
  1 25  1  0  0  0  0
  2  6  2  0  0  0  0
  2  8  1  0  0  0  0
  2 26  1  0  0  0  0
  3  5  2  0  0  0  0
  3 19  1  0  0  0  0
  3 27  1  0  0  0  0
  4  5  1  0  0  0  0
  4  7  2  0  0  0  0
  5  9  1  0  0  0  0
  6  7  1  0  0  0  0
  6 18  1  0  0  0  0
  7 19  1  0  0  0  0
  8 24  1  0  0  0  0
  9 10  2  3  0  0  0
  9 28  1  0  0  0  0
 10 21  1  0  0  0  0
 10 29  1  0  0  0  0
 11 17  1  0  0  0  0
 11 21  1  0  0  0  0
 11 22  2  0  0  0  0
 12 14  1  0  0  0  0
 12 16  1  0  0  0  0
 12 30  1  0  0  0  0
 12 31  1  0  0  0  0
 13 15  1  0  0  0  0
 13 16  1  0  0  0  0
 13 32  1  0  0  0  0
 13 33  1  0  0  0  0
 14 20  1  0  0  0  0
 14 34  1  0  0  0  0
 14 35  1  0  0  0  0
 15 20  1  0  0  0  0
 15 36  1  0  0  0  0
 15 37  1  0  0  0  0
 16 23  1  0  0  0  0
 16 38  1  1  0  0  0
 17 39  1  0  0  0  0
 17 40  1  0  0  0  0
 17 41  1  0  0  0  0
 18 20  1  0  0  0  0
 18 42  1  0  0  0  0
 18 43  1  0  0  0  0
 19 44  1  0  0  0  0
 21 45  1  0  0  0  0
 23 46  1  0  0  0  0
M  END
>  <Chemgauss4 Score>
-7.65245676040649

>  <Number of Confs>
159

$$$$
