CHR-SOS-e96-2
 OpenBabel03242009303D

 46 48  0  0  0  0  0  0  0  0999 V2000
    7.3531   -4.4065   23.2968 C   0  0  0  0  0  0  0  0  0  0  0  0
    7.9731   -6.3559   28.2575 C   0  0  0  0  0  0  0  0  0  0  0  0
    8.5646   -3.7256   23.1776 C   0  0  0  0  0  0  0  0  0  0  0  0
    8.6881   -5.7865   27.2098 C   0  0  0  0  0  0  0  0  0  0  0  0
    6.3620   -3.9224   24.1506 C   0  0  0  0  0  0  0  0  0  0  0  0
    7.7940   -2.0765   24.7663 C   0  0  0  0  0  0  0  0  0  0  0  0
    7.7112   -5.5687   29.3673 C   0  0  0  0  0  0  0  0  0  0  0  0
    8.8003   -3.7633   28.4549 C   0  0  0  0  0  0  0  0  0  0  0  0
    8.7851   -2.5606   23.9124 C   0  0  0  0  0  0  0  0  0  0  0  0
    9.1134   -4.4659   27.3025 C   0  0  0  0  0  0  0  0  0  0  0  0
    6.5824   -2.7574   24.8854 C   0  0  0  0  0  0  0  0  0  0  0  0
   10.3325   -2.5569   26.2017 C   0  0  0  0  0  0  0  0  0  0  0  0
   11.7427   -0.7955   22.2603 C   0  0  0  0  0  0  0  0  0  0  0  0
   11.2268    0.2890   23.1989 C   0  0  0  0  0  0  0  0  0  0  0  0
   10.7719   -1.9659   22.3919 C   0  0  0  0  0  0  0  0  0  0  0  0
    9.9682   -0.2782   23.8493 C   0  0  0  0  0  0  0  0  0  0  0  0
   10.1127   -1.8152   23.7813 C   0  0  0  0  0  0  0  0  0  0  0  0
   11.0572   -2.3230   24.8899 C   0  0  0  0  0  0  0  0  0  0  0  0
    8.1078   -4.2825   29.4934 N   0  0  0  0  0  0  0  0  0  0  0  0
    5.7482   -2.9522   27.4095 N   0  0  0  0  0  0  0  0  0  0  0  0
    9.8431   -3.8591   26.2527 N   0  0  0  0  0  0  0  0  0  0  0  0
   10.2248   -1.6859   27.0586 O   0  0  0  0  0  0  0  0  0  0  0  0
    5.5459   -0.7219   26.1326 O   0  0  0  0  0  0  0  0  0  0  0  0
    4.0523   -2.6478   25.4943 O   0  0  0  0  0  0  0  0  0  0  0  0
    5.3421   -2.1528   25.9549 S   0  0  0  0  0  0  0  0  0  0  0  0
    7.1810   -5.3132   22.7241 H   0  0  0  0  0  0  0  0  0  0  0  0
    7.6316   -7.3835   28.2070 H   0  0  0  0  0  0  0  0  0  0  0  0
    9.3306   -4.1096   22.5091 H   0  0  0  0  0  0  0  0  0  0  0  0
    8.9083   -6.3802   26.3265 H   0  0  0  0  0  0  0  0  0  0  0  0
    5.4222   -4.4613   24.2360 H   0  0  0  0  0  0  0  0  0  0  0  0
    7.9671   -1.1680   25.3383 H   0  0  0  0  0  0  0  0  0  0  0  0
    7.1578   -5.9664   30.2116 H   0  0  0  0  0  0  0  0  0  0  0  0
    9.1046   -2.7291   28.5857 H   0  0  0  0  0  0  0  0  0  0  0  0
   11.8013   -0.4435   21.2252 H   0  0  0  0  0  0  0  0  0  0  0  0
   12.7524   -1.0996   22.5588 H   0  0  0  0  0  0  0  0  0  0  0  0
   11.9823    0.5155   23.9598 H   0  0  0  0  0  0  0  0  0  0  0  0
   11.0124    1.2207   22.6653 H   0  0  0  0  0  0  0  0  0  0  0  0
   10.0167   -1.8931   21.5973 H   0  0  0  0  0  0  0  0  0  0  0  0
   11.2770   -2.9301   22.2660 H   0  0  0  0  0  0  0  0  0  0  0  0
    9.8383    0.0889   24.8733 H   0  0  0  0  0  0  0  0  0  0  0  0
    9.0913    0.0522   23.2763 H   0  0  0  0  0  0  0  0  0  0  0  0
   11.8473   -1.5854   25.0463 H   0  0  0  0  0  0  0  0  0  0  0  0
   11.5141   -3.2597   24.5635 H   0  0  0  0  0  0  0  0  0  0  0  0
    6.1520   -2.3925   28.1705 H   0  0  0  0  0  0  0  0  0  0  0  0
    5.1324   -3.7085   27.7320 H   0  0  0  0  0  0  0  0  0  0  0  0
   10.0243   -4.4552   25.4478 H   0  0  0  0  0  0  0  0  0  0  0  0
  1  3  1  0  0  0  0
  1  5  2  0  0  0  0
  1 26  1  0  0  0  0
  2  4  2  0  0  0  0
  2  7  1  0  0  0  0
  2 27  1  0  0  0  0
  3  9  2  0  0  0  0
  3 28  1  0  0  0  0
  4 10  1  0  0  0  0
  4 29  1  0  0  0  0
  5 11  1  0  0  0  0
  5 30  1  0  0  0  0
  6  9  1  0  0  0  0
  6 11  2  0  0  0  0
  6 31  1  0  0  0  0
  7 19  2  0  0  0  0
  7 32  1  0  0  0  0
  8 10  2  0  0  0  0
  8 19  1  0  0  0  0
  8 33  1  0  0  0  0
  9 17  1  0  0  0  0
 10 21  1  0  0  0  0
 11 25  1  0  0  0  0
 12 18  1  0  0  0  0
 12 21  1  0  0  0  0
 12 22  2  0  0  0  0
 13 14  1  0  0  0  0
 13 15  1  0  0  0  0
 13 34  1  0  0  0  0
 13 35  1  0  0  0  0
 14 16  1  0  0  0  0
 14 36  1  0  0  0  0
 14 37  1  0  0  0  0
 15 17  1  0  0  0  0
 15 38  1  0  0  0  0
 15 39  1  0  0  0  0
 16 17  1  0  0  0  0
 16 40  1  0  0  0  0
 16 41  1  0  0  0  0
 17 18  1  0  0  0  0
 18 42  1  0  0  0  0
 18 43  1  0  0  0  0
 20 25  1  0  0  0  0
 20 44  1  0  0  0  0
 20 45  1  0  0  0  0
 21 46  1  0  0  0  0
 23 25  2  0  0  0  0
 24 25  2  0  0  0  0
M  END
>  <Chemgauss4 Score>
-5.13152742385864

>  <Number of Confs>
200

$$$$
