ANT-DIA-b7f-7
 OpenBabel03242009303D

 28 29  0  0  0  0  0  0  0  0999 V2000
    9.7245   -3.2647   27.0848 C   0  0  0  0  0  0  0  0  0  0  0  0
    9.1223   -4.5073   26.8669 C   0  0  0  0  0  0  0  0  0  0  0  0
    8.4834   -2.2970   25.2403 C   0  0  0  0  0  0  0  0  0  0  0  0
    6.7189   -5.5969   24.4672 C   0  0  0  0  0  0  0  0  0  0  0  0
    9.4078   -2.1753   26.2809 C   0  0  0  0  0  0  0  0  0  0  0  0
    8.1848   -4.6577   25.8222 C   0  0  0  0  0  0  0  0  0  0  0  0
    7.8823   -3.5480   25.0272 C   0  0  0  0  0  0  0  0  0  0  0  0
   12.4826   -1.8534   22.2753 C   0  0  0  0  0  0  0  0  0  0  0  0
   10.0625   -0.8572   26.5309 C   0  0  0  0  0  0  0  0  0  0  0  0
   11.3690   -0.6657   25.7518 C   0  0  0  0  0  0  0  0  0  0  0  0
    7.5104   -5.8235   25.4894 N   0  0  0  0  0  0  0  0  0  0  0  0
   11.1704   -0.7218   24.3284 N   0  0  0  0  0  0  0  0  0  0  0  0
    9.9943   -2.4627   22.8115 O   0  0  0  0  0  0  0  0  0  0  0  0
   11.8089   -3.2398   24.3799 O   0  0  0  0  0  0  0  0  0  0  0  0
    6.7195   -4.0058   23.8393 S   0  0  0  0  0  0  0  0  0  0  0  0
   11.2496   -2.2322   23.4993 S   0  0  0  0  0  0  0  0  0  0  0  0
   10.4450   -3.1608   27.8925 H   0  0  0  0  0  0  0  0  0  0  0  0
    9.3771   -5.3517   27.5011 H   0  0  0  0  0  0  0  0  0  0  0  0
    8.2353   -1.4465   24.6118 H   0  0  0  0  0  0  0  0  0  0  0  0
    6.0967   -6.3718   24.0408 H   0  0  0  0  0  0  0  0  0  0  0  0
   12.6413   -2.7406   21.6602 H   0  0  0  0  0  0  0  0  0  0  0  0
   12.1191   -1.0251   21.6652 H   0  0  0  0  0  0  0  0  0  0  0  0
   13.4037   -1.5746   22.7892 H   0  0  0  0  0  0  0  0  0  0  0  0
   10.2778   -0.7558   27.6075 H   0  0  0  0  0  0  0  0  0  0  0  0
    9.3714   -0.0305   26.2947 H   0  0  0  0  0  0  0  0  0  0  0  0
   11.8055    0.3138   25.9713 H   0  0  0  0  0  0  0  0  0  0  0  0
   12.1046   -1.4336   26.0132 H   0  0  0  0  0  0  0  0  0  0  0  0
   10.4707   -0.0513   23.9420 H   0  0  0  0  0  0  0  0  0  0  0  0
  1  2  2  0  0  0  0
  1  5  1  0  0  0  0
  1 17  1  0  0  0  0
  2  6  1  0  0  0  0
  2 18  1  0  0  0  0
  3  5  2  0  0  0  0
  3  7  1  0  0  0  0
  3 19  1  0  0  0  0
  4 11  2  0  0  0  0
  4 15  1  0  0  0  0
  4 20  1  0  0  0  0
  5  9  1  0  0  0  0
  6  7  2  0  0  0  0
  6 11  1  0  0  0  0
  7 15  1  0  0  0  0
  8 16  1  0  0  0  0
  8 21  1  0  0  0  0
  8 22  1  0  0  0  0
  8 23  1  0  0  0  0
  9 10  1  0  0  0  0
  9 24  1  0  0  0  0
  9 25  1  0  0  0  0
 10 12  1  0  0  0  0
 10 26  1  0  0  0  0
 10 27  1  0  0  0  0
 12 16  1  0  0  0  0
 12 28  1  0  0  0  0
 13 16  2  0  0  0  0
 14 16  2  0  0  0  0
M  END
>  <Chemgauss4 Score>
-4.91106033325195

>  <Number of Confs>
166

$$$$
