JOH-MSK-a63-6
 OpenBabel03242009303D

 49 51  0  0  1  0  0  0  0  0999 V2000
    9.9580   -1.3707   28.5461 C   0  0  0  0  0  0  0  0  0  0  0  0
   10.5873   -0.7334   27.4729 C   0  0  0  0  0  0  0  0  0  0  0  0
   10.0261   -2.5653   25.9808 C   0  0  0  0  0  0  0  0  0  0  0  0
    8.2806   -4.5799   28.4819 C   0  0  0  0  0  0  0  0  0  0  0  0
    9.3859   -3.2269   27.0476 C   0  0  0  0  0  0  0  0  0  0  0  0
    8.6968   -4.4653   27.1755 C   0  0  0  0  0  0  0  0  0  0  0  0
    9.3667   -2.6155   28.3030 C   0  0  0  0  0  0  0  0  0  0  0  0
   10.6220   -1.3196   26.2092 C   0  0  0  0  0  0  0  0  0  0  0  0
    7.6087    1.0080   23.6557 C   0  0  0  0  0  0  0  0  0  0  0  0
    6.0946   -3.1503   25.6833 C   0  0  0  0  0  0  0  0  0  0  0  0
    9.0898    0.8258   23.9225 C   0  0  2  0  0  0  0  0  0  0  0  0
    9.8387    1.6639   22.8856 C   0  0  2  0  0  0  0  0  0  0  0  0
   11.3400    1.3640   22.9247 C   0  0  2  0  0  0  0  0  0  0  0  0
   11.5448   -0.1485   22.8142 C   0  0  2  0  0  0  0  0  0  0  0  0
   10.7342   -0.9108   23.8689 C   0  0  2  0  0  0  0  0  0  0  0  0
    5.8187   -1.9235   24.8788 C   0  0  0  0  0  0  0  0  0  0  0  0
    8.4634   -5.4563   26.1058 C   0  0  0  0  0  0  0  0  0  0  0  0
    7.0288   -5.4506   25.5471 C   0  0  0  0  0  0  0  0  0  0  0  0
    8.6891   -3.4593   29.1541 N   0  0  0  0  0  0  0  0  0  0  0  0
    6.6783   -4.1823   24.9661 N   0  0  0  0  0  0  0  0  0  0  0  0
    7.2244    0.6762   22.5000 O   0  5  0  0  0  0  0  0  0  0  0  0
    6.9482    1.4700   24.6280 O   0  0  0  0  0  0  0  0  0  0  0  0
    5.8038   -3.1703   26.8736 O   0  0  0  0  0  0  0  0  0  0  0  0
    9.3496   -0.5677   23.7633 O   0  0  0  0  0  0  0  0  0  0  0  0
    9.6227    3.0530   23.1125 O   0  0  0  0  0  0  0  0  0  0  0  0
   11.8801    1.8467   24.1560 O   0  0  0  0  0  0  0  0  0  0  0  0
   12.9215   -0.4824   22.9261 O   0  0  0  0  0  0  0  0  0  0  0  0
   11.2451   -0.6706   25.1774 O   0  0  0  0  0  0  0  0  0  0  0  0
    9.9320   -0.9136   29.5296 H   0  0  0  0  0  0  0  0  0  0  0  0
   11.0559    0.2346   27.6347 H   0  0  0  0  0  0  0  0  0  0  0  0
   10.0579   -3.0143   24.9918 H   0  0  0  0  0  0  0  0  0  0  0  0
    7.7309   -5.3572   28.9943 H   0  0  0  0  0  0  0  0  0  0  0  0
    9.2920    1.1468   24.9503 H   0  0  0  0  0  0  0  0  0  0  0  0
    9.4645    1.4285   21.8760 H   0  0  0  0  0  0  0  0  0  0  0  0
   11.8672    1.8967   22.1257 H   0  0  0  0  0  0  0  0  0  0  0  0
   11.2041   -0.4650   21.8200 H   0  0  0  0  0  0  0  0  0  0  0  0
   10.8293   -1.9860   23.6806 H   0  0  0  0  0  0  0  0  0  0  0  0
    4.8174   -1.9384   24.4193 H   0  0  0  0  0  0  0  0  0  0  0  0
    5.8456   -1.0061   25.4885 H   0  0  0  0  0  0  0  0  0  0  0  0
    6.5167   -1.7388   24.0467 H   0  0  0  0  0  0  0  0  0  0  0  0
    8.6776   -6.4770   26.4797 H   0  0  0  0  0  0  0  0  0  0  0  0
    9.1712   -5.3154   25.2640 H   0  0  0  0  0  0  0  0  0  0  0  0
    6.9112   -6.2017   24.7596 H   0  0  0  0  0  0  0  0  0  0  0  0
    6.2999   -5.6655   26.3354 H   0  0  0  0  0  0  0  0  0  0  0  0
    8.5189   -3.2772   30.1335 H   0  0  0  0  0  0  0  0  0  0  0  0
    6.8690   -4.0351   23.9762 H   0  0  0  0  0  0  0  0  0  0  0  0
   10.1202    3.5263   22.4273 H   0  0  0  0  0  0  0  0  0  0  0  0
   12.8259    1.6378   24.1394 H   0  0  0  0  0  0  0  0  0  0  0  0
   13.3800   -0.0290   22.2001 H   0  0  0  0  0  0  0  0  0  0  0  0
  1  2  2  0  0  0  0
  1  7  1  0  0  0  0
  1 29  1  0  0  0  0
  2  8  1  0  0  0  0
  2 30  1  0  0  0  0
  3  5  1  0  0  0  0
  3  8  2  0  0  0  0
  3 31  1  0  0  0  0
  4  6  2  0  0  0  0
  4 19  1  0  0  0  0
  4 32  1  0  0  0  0
  5  6  1  0  0  0  0
  5  7  2  0  0  0  0
  6 17  1  0  0  0  0
  7 19  1  0  0  0  0
  8 28  1  0  0  0  0
  9 11  1  0  0  0  0
  9 21  1  0  0  0  0
  9 22  2  0  0  0  0
 10 16  1  0  0  0  0
 10 20  1  0  0  0  0
 10 23  2  0  0  0  0
 11 12  1  0  0  0  0
 11 24  1  0  0  0  0
 11 33  1  1  0  0  0
 12 13  1  0  0  0  0
 12 25  1  0  0  0  0
 12 34  1  6  0  0  0
 13 14  1  0  0  0  0
 13 26  1  0  0  0  0
 13 35  1  6  0  0  0
 14 15  1  0  0  0  0
 14 27  1  0  0  0  0
 14 36  1  6  0  0  0
 15 24  1  0  0  0  0
 15 28  1  0  0  0  0
 15 37  1  6  0  0  0
 16 38  1  0  0  0  0
 16 39  1  0  0  0  0
 16 40  1  0  0  0  0
 17 18  1  0  0  0  0
 17 41  1  0  0  0  0
 17 42  1  0  0  0  0
 18 20  1  0  0  0  0
 18 43  1  0  0  0  0
 18 44  1  0  0  0  0
 19 45  1  0  0  0  0
 20 46  1  0  0  0  0
 25 47  1  0  0  0  0
 26 48  1  0  0  0  0
 27 49  1  0  0  0  0
M  CHG  1  21  -1
M  END
>  <Chemgauss4 Score>
-4.76222896575928

>  <Number of Confs>
200

$$$$
