CHR-SOS-6c4-2
 OpenBabel03242009303D

 47 49  0  0  0  0  0  0  0  0999 V2000
    9.6253   -2.9521   25.0545 C   0  0  0  0  0  0  0  0  0  0  0  0
   10.3587   -2.4655   24.2372 C   0  0  0  0  0  0  0  0  0  0  0  0
    6.5881   -4.3426   26.6985 C   0  0  0  0  0  0  0  0  0  0  0  0
    7.4134   -3.7762   25.7334 C   0  0  0  0  0  0  0  0  0  0  0  0
    6.1501    0.4878   18.4739 C   0  0  0  0  0  0  0  0  0  0  0  0
    7.1442   -4.6450   27.9310 C   0  0  0  0  0  0  0  0  0  0  0  0
    5.4831    1.2530   19.4170 C   0  0  0  0  0  0  0  0  0  0  0  0
    9.2100   -3.8715   27.2889 C   0  0  0  0  0  0  0  0  0  0  0  0
    6.9578    0.6568   21.0747 C   0  0  0  0  0  0  0  0  0  0  0  0
    8.7507   -3.5330   26.0262 C   0  0  0  0  0  0  0  0  0  0  0  0
    7.2757   -0.2171   18.8857 C   0  0  0  0  0  0  0  0  0  0  0  0
    7.6938   -0.1365   20.2093 C   0  0  0  0  0  0  0  0  0  0  0  0
    9.3611   -0.8438   21.9701 C   0  0  0  0  0  0  0  0  0  0  0  0
   14.0283   -0.9014   22.6613 C   0  0  0  0  0  0  0  0  0  0  0  0
   12.8807    0.0796   22.8724 C   0  0  0  0  0  0  0  0  0  0  0  0
   13.5355   -2.2300   22.0995 C   0  0  0  0  0  0  0  0  0  0  0  0
   11.7858   -0.5177   23.7572 C   0  0  0  0  0  0  0  0  0  0  0  0
   12.4300   -2.8382   22.9648 C   0  0  0  0  0  0  0  0  0  0  0  0
   11.2608   -1.8675   23.2309 C   0  0  0  0  0  0  0  0  0  0  0  0
    8.0137   -1.0504   17.8899 C   0  0  0  0  0  0  0  0  0  0  0  0
    8.4385   -4.4233   28.2522 N   0  0  0  0  0  0  0  0  0  0  0  0
    5.8592    1.3560   20.7114 N   0  0  0  0  0  0  0  0  0  0  0  0
    8.8321   -0.8341   20.6764 N   0  0  0  0  0  0  0  0  0  0  0  0
   10.4918   -1.6585   22.0173 N   0  0  0  0  0  0  0  0  0  0  0  0
    8.9229   -0.2383   22.9453 O   0  0  0  0  0  0  0  0  0  0  0  0
    5.5422   -4.5407   26.4935 H   0  0  0  0  0  0  0  0  0  0  0  0
    7.0009   -3.5301   24.7582 H   0  0  0  0  0  0  0  0  0  0  0  0
    5.7977    0.4461   17.4489 H   0  0  0  0  0  0  0  0  0  0  0  0
    6.5426   -5.0885   28.7172 H   0  0  0  0  0  0  0  0  0  0  0  0
    4.5995    1.8216   19.1465 H   0  0  0  0  0  0  0  0  0  0  0  0
   10.2434   -3.7066   27.5808 H   0  0  0  0  0  0  0  0  0  0  0  0
    7.2343    0.7604   22.1198 H   0  0  0  0  0  0  0  0  0  0  0  0
   14.7665   -0.4641   21.9797 H   0  0  0  0  0  0  0  0  0  0  0  0
   14.5394   -1.0758   23.6162 H   0  0  0  0  0  0  0  0  0  0  0  0
   13.2637    0.9964   23.3352 H   0  0  0  0  0  0  0  0  0  0  0  0
   12.4594    0.3682   21.9020 H   0  0  0  0  0  0  0  0  0  0  0  0
   13.1638   -2.0808   21.0785 H   0  0  0  0  0  0  0  0  0  0  0  0
   14.3739   -2.9325   22.0303 H   0  0  0  0  0  0  0  0  0  0  0  0
   12.1932   -0.6523   24.7694 H   0  0  0  0  0  0  0  0  0  0  0  0
   10.9647    0.2041   23.8618 H   0  0  0  0  0  0  0  0  0  0  0  0
   12.0680   -3.7646   22.4992 H   0  0  0  0  0  0  0  0  0  0  0  0
   12.8745   -3.1434   23.9230 H   0  0  0  0  0  0  0  0  0  0  0  0
    8.7932   -0.4555   17.4002 H   0  0  0  0  0  0  0  0  0  0  0  0
    8.4849   -1.9170   18.3699 H   0  0  0  0  0  0  0  0  0  0  0  0
    7.3363   -1.4408   17.1203 H   0  0  0  0  0  0  0  0  0  0  0  0
    9.3210   -1.3955   19.9837 H   0  0  0  0  0  0  0  0  0  0  0  0
   10.7890   -2.1239   21.1697 H   0  0  0  0  0  0  0  0  0  0  0  0
  1  2  3  0  0  0  0
  1 10  1  0  0  0  0
  2 19  1  0  0  0  0
  3  4  2  0  0  0  0
  3  6  1  0  0  0  0
  3 26  1  0  0  0  0
  4 10  1  0  0  0  0
  4 27  1  0  0  0  0
  5  7  2  0  0  0  0
  5 11  1  0  0  0  0
  5 28  1  0  0  0  0
  6 21  2  0  0  0  0
  6 29  1  0  0  0  0
  7 22  1  0  0  0  0
  7 30  1  0  0  0  0
  8 10  2  0  0  0  0
  8 21  1  0  0  0  0
  8 31  1  0  0  0  0
  9 12  1  0  0  0  0
  9 22  2  0  0  0  0
  9 32  1  0  0  0  0
 11 12  2  0  0  0  0
 11 20  1  0  0  0  0
 12 23  1  0  0  0  0
 13 23  1  0  0  0  0
 13 24  1  0  0  0  0
 13 25  2  0  0  0  0
 14 15  1  0  0  0  0
 14 16  1  0  0  0  0
 14 33  1  0  0  0  0
 14 34  1  0  0  0  0
 15 17  1  0  0  0  0
 15 35  1  0  0  0  0
 15 36  1  0  0  0  0
 16 18  1  0  0  0  0
 16 37  1  0  0  0  0
 16 38  1  0  0  0  0
 17 19  1  0  0  0  0
 17 39  1  0  0  0  0
 17 40  1  0  0  0  0
 18 19  1  0  0  0  0
 18 41  1  0  0  0  0
 18 42  1  0  0  0  0
 19 24  1  0  0  0  0
 20 43  1  0  0  0  0
 20 44  1  0  0  0  0
 20 45  1  0  0  0  0
 23 46  1  0  0  0  0
 24 47  1  0  0  0  0
M  END
>  <Chemgauss4 Score>
-5.68161106109619

>  <Number of Confs>
5

$$$$
