DAR-DIA-842-1
 OpenBabel03242009303D

 24 25  0  0  0  0  0  0  0  0999 V2000
    6.8996   -4.3460   26.3561 C   0  0  0  0  0  0  0  0  0  0  0  0
    7.9518   -3.7601   25.6613 C   0  0  0  0  0  0  0  0  0  0  0  0
   13.3170   -1.2741   22.2287 C   0  0  0  0  0  0  0  0  0  0  0  0
    6.9731   -5.7042   26.6200 C   0  0  0  0  0  0  0  0  0  0  0  0
    9.0086   -5.8888   25.5708 C   0  0  0  0  0  0  0  0  0  0  0  0
   13.6076   -0.0016   21.7884 C   0  0  0  0  0  0  0  0  0  0  0  0
   11.4518   -0.1009   22.9683 C   0  0  0  0  0  0  0  0  0  0  0  0
    9.0303   -4.5393   25.2575 C   0  0  0  0  0  0  0  0  0  0  0  0
   12.0681   -1.3318   22.9121 C   0  0  0  0  0  0  0  0  0  0  0  0
   10.2873   -2.6342   24.1578 C   0  0  0  0  0  0  0  0  0  0  0  0
    8.0042   -6.4935   26.2439 N   0  0  0  0  0  0  0  0  0  0  0  0
   10.0985   -3.9806   24.5600 N   0  0  0  0  0  0  0  0  0  0  0  0
   11.5069   -2.5025   23.4746 N   0  0  0  0  0  0  0  0  0  0  0  0
    9.4957   -1.7232   24.3784 O   0  0  0  0  0  0  0  0  0  0  0  0
   12.3777    1.1169   22.1990 S   0  0  0  0  0  0  0  0  0  0  0  0
    6.0487   -3.7579   26.6806 H   0  0  0  0  0  0  0  0  0  0  0  0
    7.9214   -2.6965   25.4401 H   0  0  0  0  0  0  0  0  0  0  0  0
   13.9739   -2.1195   22.0658 H   0  0  0  0  0  0  0  0  0  0  0  0
    6.1774   -6.2088   27.1581 H   0  0  0  0  0  0  0  0  0  0  0  0
    9.8217   -6.5484   25.2826 H   0  0  0  0  0  0  0  0  0  0  0  0
   14.4828    0.3245   21.2443 H   0  0  0  0  0  0  0  0  0  0  0  0
   10.5021    0.1476   23.4219 H   0  0  0  0  0  0  0  0  0  0  0  0
   10.8500   -4.6309   24.3026 H   0  0  0  0  0  0  0  0  0  0  0  0
   12.0596   -3.3492   23.3668 H   0  0  0  0  0  0  0  0  0  0  0  0
  1  2  2  0  0  0  0
  1  4  1  0  0  0  0
  1 16  1  0  0  0  0
  2  8  1  0  0  0  0
  2 17  1  0  0  0  0
  3  6  2  0  0  0  0
  3  9  1  0  0  0  0
  3 18  1  0  0  0  0
  4 11  2  0  0  0  0
  4 19  1  0  0  0  0
  5  8  2  0  0  0  0
  5 11  1  0  0  0  0
  5 20  1  0  0  0  0
  6 15  1  0  0  0  0
  6 21  1  0  0  0  0
  7  9  2  0  0  0  0
  7 15  1  0  0  0  0
  7 22  1  0  0  0  0
  8 12  1  0  0  0  0
  9 13  1  0  0  0  0
 10 12  1  0  0  0  0
 10 13  1  0  0  0  0
 10 14  2  0  0  0  0
 12 23  1  0  0  0  0
 13 24  1  0  0  0  0
M  END
>  <Chemgauss4 Score>
-4.53578996658325

>  <Number of Confs>
4

$$$$
