SAM-UNK-83e-3
 OpenBabel03242009303D

 39 40  0  0  0  0  0  0  0  0999 V2000
   12.2548   -2.1692   23.2106 C   0  0  0  0  0  0  0  0  0  0  0  0
   11.7564   -0.3140   21.7250 C   0  0  0  0  0  0  0  0  0  0  0  0
    8.7773   -3.0044   23.9657 C   0  0  0  0  0  0  0  0  0  0  0  0
   10.8742   -2.3722   23.4064 C   0  0  0  0  0  0  0  0  0  0  0  0
   10.3822   -0.4963   21.9040 C   0  0  0  0  0  0  0  0  0  0  0  0
   10.1064   -3.2957   24.1696 C   0  0  0  0  0  0  0  0  0  0  0  0
    9.9716   -1.5327   22.7500 C   0  0  0  0  0  0  0  0  0  0  0  0
   12.6801   -1.1363   22.3672 C   0  0  0  0  0  0  0  0  0  0  0  0
    9.3928    0.3390   21.2537 C   0  0  0  0  0  0  0  0  0  0  0  0
   10.5760   -4.3374   24.9998 C   0  0  0  0  0  0  0  0  0  0  0  0
    8.4436   -0.1331   20.4486 C   0  0  0  0  0  0  0  0  0  0  0  0
   10.2971   -4.4630   26.3165 C   0  0  0  0  0  0  0  0  0  0  0  0
    9.2985   -3.8465   28.4376 C   0  0  0  0  0  0  0  0  0  0  0  0
    8.3904   -2.8012   29.0306 C   0  0  0  0  0  0  0  0  0  0  0  0
    5.3062    0.6677   18.2226 C   0  0  0  0  0  0  0  0  0  0  0  0
    8.7061   -1.9397   23.1079 N   0  0  0  0  0  0  0  0  0  0  0  0
    9.5336   -3.6407   27.0849 N   0  0  0  0  0  0  0  0  0  0  0  0
    7.4810    0.5970   19.8241 N   0  0  0  0  0  0  0  0  0  0  0  0
    9.7353   -4.7756   29.1132 O   0  0  0  0  0  0  0  0  0  0  0  0
    7.7203    0.7400   17.2484 O   0  0  0  0  0  0  0  0  0  0  0  0
    6.8895   -1.4054   18.2921 O   0  0  0  0  0  0  0  0  0  0  0  0
   13.9914   -0.9370   22.1761 F   0  0  0  0  0  0  0  0  0  0  0  0
    6.9674    0.0424   18.2732 S   0  0  0  0  0  0  0  0  0  0  0  0
   12.9887   -2.8007   23.7031 H   0  0  0  0  0  0  0  0  0  0  0  0
   12.1226    0.4792   21.0768 H   0  0  0  0  0  0  0  0  0  0  0  0
    7.8727   -3.4553   24.3510 H   0  0  0  0  0  0  0  0  0  0  0  0
    9.4261    1.3972   21.4726 H   0  0  0  0  0  0  0  0  0  0  0  0
   11.1899   -5.1302   24.5521 H   0  0  0  0  0  0  0  0  0  0  0  0
    8.3337   -1.1853   20.2135 H   0  0  0  0  0  0  0  0  0  0  0  0
   10.6950   -5.2766   26.9117 H   0  0  0  0  0  0  0  0  0  0  0  0
    7.3509   -3.1295   28.9432 H   0  0  0  0  0  0  0  0  0  0  0  0
    8.5215   -1.8611   28.4879 H   0  0  0  0  0  0  0  0  0  0  0  0
    8.6133   -2.6418   30.0895 H   0  0  0  0  0  0  0  0  0  0  0  0
    4.8584    0.3790   17.2704 H   0  0  0  0  0  0  0  0  0  0  0  0
    4.7493    0.2335   19.0543 H   0  0  0  0  0  0  0  0  0  0  0  0
    5.3444    1.7543   18.3135 H   0  0  0  0  0  0  0  0  0  0  0  0
    7.8470   -1.5160   22.7856 H   0  0  0  0  0  0  0  0  0  0  0  0
    9.1101   -2.8272   26.6427 H   0  0  0  0  0  0  0  0  0  0  0  0
    7.4714    1.6371   19.9818 H   0  0  0  0  0  0  0  0  0  0  0  0
  1  4  1  0  0  0  0
  1  8  2  0  0  0  0
  1 24  1  0  0  0  0
  2  5  2  0  0  0  0
  2  8  1  0  0  0  0
  2 25  1  0  0  0  0
  3  6  2  0  0  0  0
  3 16  1  0  0  0  0
  3 26  1  0  0  0  0
  4  6  1  0  0  0  0
  4  7  2  0  0  0  0
  5  7  1  0  0  0  0
  5  9  1  0  0  0  0
  6 10  1  0  0  0  0
  7 16  1  0  0  0  0
  8 22  1  0  0  0  0
  9 11  2  3  0  0  0
  9 27  1  0  0  0  0
 10 12  2  3  0  0  0
 10 28  1  0  0  0  0
 11 18  1  0  0  0  0
 11 29  1  0  0  0  0
 12 17  1  0  0  0  0
 12 30  1  0  0  0  0
 13 14  1  0  0  0  0
 13 17  1  0  0  0  0
 13 19  2  0  0  0  0
 14 31  1  0  0  0  0
 14 32  1  0  0  0  0
 14 33  1  0  0  0  0
 15 23  1  0  0  0  0
 15 34  1  0  0  0  0
 15 35  1  0  0  0  0
 15 36  1  0  0  0  0
 16 37  1  0  0  0  0
 17 38  1  0  0  0  0
 18 23  1  0  0  0  0
 18 39  1  0  0  0  0
 20 23  2  0  0  0  0
 21 23  2  0  0  0  0
M  END
>  <Chemgauss4 Score>
-6.28397941589355

>  <Number of Confs>
200

$$$$
