JOH-MEM-5e3-3
 OpenBabel03242009303D

 53 55  0  0  1  0  0  0  0  0999 V2000
    7.2690   -2.5470   22.9307 C   0  0  0  0  0  0  0  0  0  0  0  0
    6.6578   -1.6518   22.0481 C   0  0  0  0  0  0  0  0  0  0  0  0
    8.8083   -0.7197   21.4128 C   0  0  0  0  0  0  0  0  0  0  0  0
   10.8167   -2.8663   23.5851 C   0  0  0  0  0  0  0  0  0  0  0  0
    9.4468   -1.6127   22.2962 C   0  0  0  0  0  0  0  0  0  0  0  0
   10.8028   -1.8530   22.6546 C   0  0  0  0  0  0  0  0  0  0  0  0
    8.6640   -2.5039   23.0333 C   0  0  0  0  0  0  0  0  0  0  0  0
    7.4136   -0.7514   21.2999 C   0  0  0  0  0  0  0  0  0  0  0  0
    6.6493   -5.6426   25.9782 C   0  0  0  0  0  0  0  0  0  0  0  0
   11.3273    0.3179   25.0503 C   0  0  0  0  0  0  0  0  0  0  0  0
    7.6758   -4.7803   26.6575 C   0  0  1  0  0  0  0  0  0  0  0  0
    8.7930   -5.5406   27.3747 C   0  0  2  0  0  0  0  0  0  0  0  0
    9.8677   -6.0920   26.4307 C   0  0  2  0  0  0  0  0  0  0  0  0
   10.3259   -5.0002   25.4597 C   0  0  1  0  0  0  0  0  0  0  0  0
    9.1103   -4.3477   24.7731 C   0  0  2  0  0  0  0  0  0  0  0  0
   11.7469    0.2636   26.4818 C   0  0  0  0  0  0  0  0  0  0  0  0
    7.6167    1.0051   19.7096 C   0  0  0  0  0  0  0  0  0  0  0  0
   11.9891   -1.1465   22.1306 C   0  0  0  0  0  0  0  0  0  0  0  0
   12.1924    0.2613   22.7198 C   0  0  0  0  0  0  0  0  0  0  0  0
    9.5221   -3.2526   23.8069 N   0  0  0  0  0  0  0  0  0  0  0  0
   12.3739    0.2308   24.1463 N   0  0  0  0  0  0  0  0  0  0  0  0
    6.3790   -5.6056   24.7870 O   0  0  0  0  0  0  0  0  0  0  0  0
   10.1389    0.4293   24.7728 O   0  0  0  0  0  0  0  0  0  0  0  0
    8.1870   -3.8236   25.7375 O   0  0  0  0  0  0  0  0  0  0  0  0
    6.0553   -6.4726   26.8702 O   0  0  0  0  0  0  0  0  0  0  0  0
    8.2493   -6.5668   28.1947 O   0  0  0  0  0  0  0  0  0  0  0  0
    9.3534   -7.1992   25.6970 O   0  0  0  0  0  0  0  0  0  0  0  0
   11.0519   -4.0117   26.1899 O   0  0  0  0  0  0  0  0  0  0  0  0
    6.7886    0.1085   20.4469 O   0  0  0  0  0  0  0  0  0  0  0  0
    6.6756   -3.2458   23.5109 H   0  0  0  0  0  0  0  0  0  0  0  0
    5.5749   -1.6657   21.9481 H   0  0  0  0  0  0  0  0  0  0  0  0
    9.3886   -0.0136   20.8250 H   0  0  0  0  0  0  0  0  0  0  0  0
   11.6366   -3.3405   24.1083 H   0  0  0  0  0  0  0  0  0  0  0  0
    7.1012   -4.2142   27.4199 H   0  0  0  0  0  0  0  0  0  0  0  0
    9.2814   -4.8293   28.0457 H   0  0  0  0  0  0  0  0  0  0  0  0
   10.7148   -6.4637   27.0306 H   0  0  0  0  0  0  0  0  0  0  0  0
   10.9968   -5.4184   24.6981 H   0  0  0  0  0  0  0  0  0  0  0  0
    8.5955   -5.0799   24.1216 H   0  0  0  0  0  0  0  0  0  0  0  0
   11.9590    1.2624   26.8960 H   0  0  0  0  0  0  0  0  0  0  0  0
   10.9665   -0.1619   27.1329 H   0  0  0  0  0  0  0  0  0  0  0  0
   12.6508   -0.3325   26.6857 H   0  0  0  0  0  0  0  0  0  0  0  0
    6.9938    1.6340   19.0688 H   0  0  0  0  0  0  0  0  0  0  0  0
    8.3231    0.4339   19.1020 H   0  0  0  0  0  0  0  0  0  0  0  0
    8.1688    1.6364   20.4099 H   0  0  0  0  0  0  0  0  0  0  0  0
   11.9162   -1.0461   21.0296 H   0  0  0  0  0  0  0  0  0  0  0  0
   12.9142   -1.7354   22.2945 H   0  0  0  0  0  0  0  0  0  0  0  0
   13.0828    0.7383   22.2984 H   0  0  0  0  0  0  0  0  0  0  0  0
   11.3299    0.9026   22.5102 H   0  0  0  0  0  0  0  0  0  0  0  0
   13.3210    0.1406   24.5110 H   0  0  0  0  0  0  0  0  0  0  0  0
    5.3796   -7.0433   26.4460 H   0  0  0  0  0  0  0  0  0  0  0  0
    7.7579   -7.1638   27.6074 H   0  0  0  0  0  0  0  0  0  0  0  0
   10.0707   -7.5049   25.1208 H   0  0  0  0  0  0  0  0  0  0  0  0
   11.8080   -4.4673   26.5898 H   0  0  0  0  0  0  0  0  0  0  0  0
  1  2  2  0  0  0  0
  1  7  1  0  0  0  0
  1 30  1  0  0  0  0
  2  8  1  0  0  0  0
  2 31  1  0  0  0  0
  3  5  1  0  0  0  0
  3  8  2  0  0  0  0
  3 32  1  0  0  0  0
  4  6  2  0  0  0  0
  4 20  1  0  0  0  0
  4 33  1  0  0  0  0
  5  6  1  0  0  0  0
  5  7  2  0  0  0  0
  6 18  1  0  0  0  0
  7 20  1  0  0  0  0
  8 29  1  0  0  0  0
  9 11  1  0  0  0  0
  9 22  2  0  0  0  0
  9 25  1  0  0  0  0
 10 16  1  0  0  0  0
 10 21  1  0  0  0  0
 10 23  2  0  0  0  0
 11 12  1  0  0  0  0
 11 24  1  0  0  0  0
 11 34  1  1  0  0  0
 12 13  1  0  0  0  0
 12 26  1  0  0  0  0
 12 35  1  1  0  0  0
 13 14  1  0  0  0  0
 13 27  1  0  0  0  0
 13 36  1  1  0  0  0
 14 15  1  0  0  0  0
 14 28  1  0  0  0  0
 14 37  1  6  0  0  0
 15 20  1  0  0  0  0
 15 24  1  0  0  0  0
 15 38  1  6  0  0  0
 16 39  1  0  0  0  0
 16 40  1  0  0  0  0
 16 41  1  0  0  0  0
 17 29  1  0  0  0  0
 17 42  1  0  0  0  0
 17 43  1  0  0  0  0
 17 44  1  0  0  0  0
 18 19  1  0  0  0  0
 18 45  1  0  0  0  0
 18 46  1  0  0  0  0
 19 21  1  0  0  0  0
 19 47  1  0  0  0  0
 19 48  1  0  0  0  0
 21 49  1  0  0  0  0
 25 50  1  0  0  0  0
 26 51  1  0  0  0  0
 27 52  1  0  0  0  0
 28 53  1  0  0  0  0
M  END
>  <Chemgauss4 Score>
-4.70017957687378

>  <Number of Confs>
200

$$$$
