DAR-DIA-fc9-4
 OpenBabel03242009303D

 35 37  0  0  1  0  0  0  0  0999 V2000
   12.8329   -0.0761   23.0219 C   0  0  0  0  0  0  0  0  0  0  0  0
   12.2931   -0.9301   22.0602 C   0  0  0  0  0  0  0  0  0  0  0  0
   12.1419    0.1620   24.2099 C   0  0  0  0  0  0  0  0  0  0  0  0
    9.7657   -4.8015   27.3750 C   0  0  0  0  0  0  0  0  0  0  0  0
    9.0460   -4.5116   26.2212 C   0  0  0  0  0  0  0  0  0  0  0  0
   11.0622   -1.5460   22.2865 C   0  0  0  0  0  0  0  0  0  0  0  0
   10.9110   -0.4538   24.4362 C   0  0  0  0  0  0  0  0  0  0  0  0
    9.2735   -4.3311   28.5818 C   0  0  0  0  0  0  0  0  0  0  0  0
    7.4651   -3.3465   27.5627 C   0  0  0  0  0  0  0  0  0  0  0  0
    7.8727   -3.7706   26.3082 C   0  0  0  0  0  0  0  0  0  0  0  0
   10.3711   -1.3079   23.4745 C   0  0  0  0  0  0  0  0  0  0  0  0
    8.7905   -3.2055   23.1601 C   0  0  0  0  0  0  0  0  0  0  0  0
    7.5872   -3.9451   23.7235 C   0  0  0  0  0  0  0  0  0  0  0  0
    6.8307   -1.9395   24.8898 C   0  0  0  0  0  0  0  0  0  0  0  0
    8.1179   -1.2071   24.5365 C   0  0  0  0  0  0  0  0  0  0  0  0
    7.0614   -3.4371   25.0634 C   0  0  2  0  0  0  0  0  0  0  0  0
    8.1377   -3.6085   28.7058 N   0  0  0  0  0  0  0  0  0  0  0  0
    9.0884   -1.9499   23.7102 N   0  0  0  0  0  0  0  0  0  0  0  0
    9.4017   -3.7440   22.2322 O   0  0  0  0  0  0  0  0  0  0  0  0
   13.7917    0.4031   22.8463 H   0  0  0  0  0  0  0  0  0  0  0  0
   12.8313   -1.1164   21.1355 H   0  0  0  0  0  0  0  0  0  0  0  0
   12.5629    0.8264   24.9590 H   0  0  0  0  0  0  0  0  0  0  0  0
   10.6828   -5.3777   27.3312 H   0  0  0  0  0  0  0  0  0  0  0  0
    9.4065   -4.8670   25.2597 H   0  0  0  0  0  0  0  0  0  0  0  0
   10.6514   -2.2098   21.5298 H   0  0  0  0  0  0  0  0  0  0  0  0
   10.3814   -0.2609   25.3659 H   0  0  0  0  0  0  0  0  0  0  0  0
    9.7983   -4.5301   29.5104 H   0  0  0  0  0  0  0  0  0  0  0  0
    6.5576   -2.7650   27.6927 H   0  0  0  0  0  0  0  0  0  0  0  0
    6.7795   -3.8925   22.9700 H   0  0  0  0  0  0  0  0  0  0  0  0
    7.8683   -5.0132   23.7911 H   0  0  0  0  0  0  0  0  0  0  0  0
    6.3987   -1.5026   25.8119 H   0  0  0  0  0  0  0  0  0  0  0  0
    6.0782   -1.7531   24.0999 H   0  0  0  0  0  0  0  0  0  0  0  0
    7.8709   -0.2870   23.9791 H   0  0  0  0  0  0  0  0  0  0  0  0
    8.6245   -0.8928   25.4648 H   0  0  0  0  0  0  0  0  0  0  0  0
    6.0286   -3.9042   25.2300 H   0  0  0  0  0  0  0  0  0  0  0  0
  1  2  1  0  0  0  0
  1  3  2  0  0  0  0
  1 20  1  0  0  0  0
  2  6  2  0  0  0  0
  2 21  1  0  0  0  0
  3  7  1  0  0  0  0
  3 22  1  0  0  0  0
  4  5  2  0  0  0  0
  4  8  1  0  0  0  0
  4 23  1  0  0  0  0
  5 10  1  0  0  0  0
  5 24  1  0  0  0  0
  6 11  1  0  0  0  0
  6 25  1  0  0  0  0
  7 11  2  0  0  0  0
  7 26  1  0  0  0  0
  8 17  2  0  0  0  0
  8 27  1  0  0  0  0
  9 10  2  0  0  0  0
  9 17  1  0  0  0  0
  9 28  1  0  0  0  0
 10 16  1  0  0  0  0
 11 18  1  0  0  0  0
 12 13  1  0  0  0  0
 12 18  1  0  0  0  0
 12 19  2  0  0  0  0
 13 16  1  0  0  0  0
 13 29  1  0  0  0  0
 13 30  1  0  0  0  0
 14 15  1  0  0  0  0
 14 16  1  0  0  0  0
 14 31  1  0  0  0  0
 14 32  1  0  0  0  0
 15 18  1  0  0  0  0
 15 33  1  0  0  0  0
 15 34  1  0  0  0  0
 16 35  1  1  0  0  0
M  END
>  <Chemgauss4 Score>
-5.02967643737793

>  <Number of Confs>
28

$$$$
