TRY-UNI-1fd-11
 OpenBabel03242009303D

 34 36  0  0  0  0  0  0  0  0999 V2000
    8.7215   -2.1465   27.9666 C   0  0  0  0  0  0  0  0  0  0  0  0
    7.9230   -2.6887   26.9612 C   0  0  0  0  0  0  0  0  0  0  0  0
   10.2423   -0.2975   23.7110 C   0  0  0  0  0  0  0  0  0  0  0  0
    9.1898   -1.0822   23.2530 C   0  0  0  0  0  0  0  0  0  0  0  0
    9.6332   -2.9706   28.6127 C   0  0  0  0  0  0  0  0  0  0  0  0
   11.7435   -1.7112   22.5260 C   0  0  0  0  0  0  0  0  0  0  0  0
    8.1068   -6.1885   25.9326 C   0  0  0  0  0  0  0  0  0  0  0  0
    8.0870   -4.0495   26.6559 C   0  0  0  0  0  0  0  0  0  0  0  0
    7.5029   -4.9645   25.7405 C   0  0  0  0  0  0  0  0  0  0  0  0
   11.5465   -0.6112   23.3451 C   0  0  0  0  0  0  0  0  0  0  0  0
    9.4923   -2.1610   22.4379 C   0  0  0  0  0  0  0  0  0  0  0  0
    9.0386   -4.7588   27.3829 C   0  0  0  0  0  0  0  0  0  0  0  0
    6.7948   -3.5675   23.7595 C   0  0  0  0  0  0  0  0  0  0  0  0
    6.4410   -4.6693   24.7579 C   0  0  0  0  0  0  0  0  0  0  0  0
    8.3806   -3.0299   21.9247 C   0  0  0  0  0  0  0  0  0  0  0  0
   10.7464   -2.4970   22.0613 N   0  0  0  0  0  0  0  0  0  0  0  0
    9.8336   -4.2851   28.3609 N   0  0  0  0  0  0  0  0  0  0  0  0
    9.0361   -6.0522   26.9311 N   0  0  0  0  0  0  0  0  0  0  0  0
    7.8667   -3.9104   22.9476 N   0  0  0  0  0  0  0  0  0  0  0  0
    6.1789   -2.5063   23.7020 O   0  0  0  0  0  0  0  0  0  0  0  0
   12.8693    0.3345   23.8898 Cl  0  0  0  0  0  0  0  0  0  0  0  0
    8.6314   -1.1002   28.2383 H   0  0  0  0  0  0  0  0  0  0  0  0
    7.2010   -2.0718   26.4361 H   0  0  0  0  0  0  0  0  0  0  0  0
   10.0323    0.5550   24.3516 H   0  0  0  0  0  0  0  0  0  0  0  0
    8.1677   -0.8483   23.5311 H   0  0  0  0  0  0  0  0  0  0  0  0
   10.2648   -2.5647   29.3985 H   0  0  0  0  0  0  0  0  0  0  0  0
   12.7375   -2.0081   22.2050 H   0  0  0  0  0  0  0  0  0  0  0  0
    7.9599   -7.1443   25.4488 H   0  0  0  0  0  0  0  0  0  0  0  0
    6.1775   -5.5734   24.1748 H   0  0  0  0  0  0  0  0  0  0  0  0
    5.5025   -4.3668   25.2622 H   0  0  0  0  0  0  0  0  0  0  0  0
    7.5496   -2.4174   21.5582 H   0  0  0  0  0  0  0  0  0  0  0  0
    8.7206   -3.6504   21.0889 H   0  0  0  0  0  0  0  0  0  0  0  0
    9.6280   -6.7924   27.2818 H   0  0  0  0  0  0  0  0  0  0  0  0
    8.3072   -4.8164   23.0779 H   0  0  0  0  0  0  0  0  0  0  0  0
  1  2  2  0  0  0  0
  1  5  1  0  0  0  0
  1 22  1  0  0  0  0
  2  8  1  0  0  0  0
  2 23  1  0  0  0  0
  3  4  2  0  0  0  0
  3 10  1  0  0  0  0
  3 24  1  0  0  0  0
  4 11  1  0  0  0  0
  4 25  1  0  0  0  0
  5 17  2  0  0  0  0
  5 26  1  0  0  0  0
  6 10  2  0  0  0  0
  6 16  1  0  0  0  0
  6 27  1  0  0  0  0
  7  9  2  0  0  0  0
  7 18  1  0  0  0  0
  7 28  1  0  0  0  0
  8  9  1  0  0  0  0
  8 12  2  0  0  0  0
  9 14  1  0  0  0  0
 10 21  1  0  0  0  0
 11 15  1  0  0  0  0
 11 16  2  0  0  0  0
 12 17  1  0  0  0  0
 12 18  1  0  0  0  0
 13 14  1  0  0  0  0
 13 19  1  0  0  0  0
 13 20  2  0  0  0  0
 14 29  1  0  0  0  0
 14 30  1  0  0  0  0
 15 19  1  0  0  0  0
 15 31  1  0  0  0  0
 15 32  1  0  0  0  0
 18 33  1  0  0  0  0
 19 34  1  0  0  0  0
M  END
>  <Chemgauss4 Score>
-5.2722544670105

>  <Number of Confs>
200

$$$$
