HAR-NEW-972-1
 OpenBabel03242009303D

 45 47  0  0  1  0  0  0  0  0999 V2000
   10.5220   -2.2418   25.7702 C   0  0  0  0  0  0  0  0  0  0  0  0
   10.9395   -1.3519   24.7505 C   0  0  0  0  0  0  0  0  0  0  0  0
   10.5362   -3.5133   25.2349 C   0  0  0  0  0  0  0  0  0  0  0  0
   11.1987   -2.1135   23.6289 C   0  0  0  0  0  0  0  0  0  0  0  0
    7.0760   -4.4847   24.2395 C   0  0  0  0  0  0  0  0  0  0  0  0
   11.1221    0.1269   24.7800 C   0  0  0  0  0  0  0  0  0  0  0  0
   11.6381   -1.6089   22.3027 C   0  0  0  0  0  0  0  0  0  0  0  0
   12.1254   -0.1531   22.4382 C   0  0  0  0  0  0  0  0  0  0  0  0
    8.3001   -4.4439   27.5875 C   0  0  0  0  0  0  0  0  0  0  0  0
    9.7599   -4.8533   27.3507 C   0  0  0  0  0  0  0  0  0  0  0  0
    7.3367   -5.1870   26.6686 C   0  0  0  0  0  0  0  0  0  0  0  0
    9.1238   -5.6230   25.0371 C   0  0  0  0  0  0  0  0  0  0  0  0
   10.1828   -4.8595   25.8617 C   0  0  1  0  0  0  0  0  0  0  0  0
   11.2302    0.7233   23.3523 C   0  0  1  0  0  0  0  0  0  0  0  0
    5.7376   -3.8878   24.5934 C   0  0  0  0  0  0  0  0  0  0  0  0
    9.8453    0.9450   22.7348 C   0  0  0  0  0  0  0  0  0  0  0  0
   10.9494   -3.4233   23.9289 N   0  0  0  0  0  0  0  0  0  0  0  0
    7.7845   -5.0864   25.2782 N   0  0  0  0  0  0  0  0  0  0  0  0
    9.2767    2.1470   23.2448 N   0  0  0  0  0  0  0  0  0  0  0  0
    7.4796   -4.4150   23.0758 O   0  0  0  0  0  0  0  0  0  0  0  0
    5.0969   -3.1765   23.1165 Cl  0  0  0  0  0  0  0  0  0  0  0  0
   10.2399   -1.9859   26.7825 H   0  0  0  0  0  0  0  0  0  0  0  0
   10.2651    0.5708   25.3080 H   0  0  0  0  0  0  0  0  0  0  0  0
   12.0219    0.3846   25.3563 H   0  0  0  0  0  0  0  0  0  0  0  0
   12.4589   -2.2355   21.9351 H   0  0  0  0  0  0  0  0  0  0  0  0
   10.8243   -1.6612   21.5720 H   0  0  0  0  0  0  0  0  0  0  0  0
   13.1627   -0.1581   22.8131 H   0  0  0  0  0  0  0  0  0  0  0  0
   12.1696    0.3064   21.4343 H   0  0  0  0  0  0  0  0  0  0  0  0
    8.0331   -4.6409   28.6357 H   0  0  0  0  0  0  0  0  0  0  0  0
    8.1967   -3.3609   27.4354 H   0  0  0  0  0  0  0  0  0  0  0  0
   10.4201   -4.1684   27.9217 H   0  0  0  0  0  0  0  0  0  0  0  0
    9.9331   -5.8543   27.7934 H   0  0  0  0  0  0  0  0  0  0  0  0
    7.2574   -6.2293   26.9809 H   0  0  0  0  0  0  0  0  0  0  0  0
    6.3386   -4.7448   26.7224 H   0  0  0  0  0  0  0  0  0  0  0  0
    9.3242   -5.5188   23.9622 H   0  0  0  0  0  0  0  0  0  0  0  0
    9.1848   -6.6913   25.2620 H   0  0  0  0  0  0  0  0  0  0  0  0
   11.1313   -5.4909   25.7932 H   0  0  0  0  0  0  0  0  0  0  0  0
   11.7200    1.7158   23.4360 H   0  0  0  0  0  0  0  0  0  0  0  0
    5.8829   -3.1193   25.3440 H   0  0  0  0  0  0  0  0  0  0  0  0
    5.0817   -4.6775   24.9414 H   0  0  0  0  0  0  0  0  0  0  0  0
    9.9796    1.0116   21.6565 H   0  0  0  0  0  0  0  0  0  0  0  0
    9.2315    0.0866   23.0023 H   0  0  0  0  0  0  0  0  0  0  0  0
   11.0554   -4.2019   23.2926 H   0  0  0  0  0  0  0  0  0  0  0  0
    8.3989    1.9527   23.6927 H   0  0  0  0  0  0  0  0  0  0  0  0
    9.8959    2.5654   23.9159 H   0  0  0  0  0  0  0  0  0  0  0  0
  1  2  1  0  0  0  0
  1  3  2  0  0  0  0
  1 22  1  0  0  0  0
  2  4  2  0  0  0  0
  2  6  1  0  0  0  0
  3 13  1  0  0  0  0
  3 17  1  0  0  0  0
  4  7  1  0  0  0  0
  4 17  1  0  0  0  0
  5 15  1  0  0  0  0
  5 18  1  0  0  0  0
  5 20  2  0  0  0  0
  6 14  1  0  0  0  0
  6 23  1  0  0  0  0
  6 24  1  0  0  0  0
  7  8  1  0  0  0  0
  7 25  1  0  0  0  0
  7 26  1  0  0  0  0
  8 14  1  0  0  0  0
  8 27  1  0  0  0  0
  8 28  1  0  0  0  0
  9 10  1  0  0  0  0
  9 11  1  0  0  0  0
  9 29  1  0  0  0  0
  9 30  1  0  0  0  0
 10 13  1  0  0  0  0
 10 31  1  0  0  0  0
 10 32  1  0  0  0  0
 11 18  1  0  0  0  0
 11 33  1  0  0  0  0
 11 34  1  0  0  0  0
 12 13  1  0  0  0  0
 12 18  1  0  0  0  0
 12 35  1  0  0  0  0
 12 36  1  0  0  0  0
 13 37  1  6  0  0  0
 14 16  1  0  0  0  0
 14 38  1  1  0  0  0
 15 21  1  0  0  0  0
 15 39  1  0  0  0  0
 15 40  1  0  0  0  0
 16 19  1  0  0  0  0
 16 41  1  0  0  0  0
 16 42  1  0  0  0  0
 17 43  1  0  0  0  0
 19 44  1  0  0  0  0
 19 45  1  0  0  0  0
M  END
>  <Chemgauss4 Score>
-5.92894077301025

>  <Number of Confs>
200

$$$$
