NIM-UNI-36e-5
 OpenBabel03242009303D

 31 33  0  0  0  0  0  0  0  0999 V2000
    7.7062   -6.4544   27.9532 C   0  0  0  0  0  0  0  0  0  0  0  0
   11.7775   -1.5271   22.5761 C   0  0  0  0  0  0  0  0  0  0  0  0
    6.5467   -4.5572   26.9245 C   0  0  0  0  0  0  0  0  0  0  0  0
    6.5557   -3.4081   26.1138 C   0  0  0  0  0  0  0  0  0  0  0  0
   11.3115   -2.6026   23.3242 C   0  0  0  0  0  0  0  0  0  0  0  0
   11.6425   -0.2569   23.1127 C   0  0  0  0  0  0  0  0  0  0  0  0
   10.6447   -1.0697   25.0159 C   0  0  0  0  0  0  0  0  0  0  0  0
    7.7209   -5.2713   27.1549 C   0  0  0  0  0  0  0  0  0  0  0  0
    7.7414   -2.9404   25.5305 C   0  0  0  0  0  0  0  0  0  0  0  0
   10.7328   -2.3780   24.5683 C   0  0  0  0  0  0  0  0  0  0  0  0
    8.8736   -4.7879   26.5694 C   0  0  0  0  0  0  0  0  0  0  0  0
    8.9130   -3.6277   25.7918 C   0  0  0  0  0  0  0  0  0  0  0  0
   11.0353   -4.5509   25.8472 C   0  0  0  0  0  0  0  0  0  0  0  0
    7.6938   -1.7497   24.6969 C   0  0  0  0  0  0  0  0  0  0  0  0
    7.4437   -1.9402   23.2291 C   0  0  0  0  0  0  0  0  0  0  0  0
    7.6943   -7.4164   28.6022 N   0  0  0  0  0  0  0  0  0  0  0  0
   11.0861    0.0005   24.3176 N   0  0  0  0  0  0  0  0  0  0  0  0
   10.1449   -5.3520   26.6093 N   0  0  0  0  0  0  0  0  0  0  0  0
   10.2487   -3.4530   25.3532 N   0  0  0  0  0  0  0  0  0  0  0  0
   12.2303   -4.7705   25.7019 O   0  0  0  0  0  0  0  0  0  0  0  0
    7.8481   -0.5960   25.1034 O   0  0  0  0  0  0  0  0  0  0  0  0
   12.2321   -1.6786   21.6038 H   0  0  0  0  0  0  0  0  0  0  0  0
    5.6033   -4.8847   27.3563 H   0  0  0  0  0  0  0  0  0  0  0  0
    5.6181   -2.8832   25.9424 H   0  0  0  0  0  0  0  0  0  0  0  0
   11.4041   -3.6105   22.9284 H   0  0  0  0  0  0  0  0  0  0  0  0
   11.9894    0.6152   22.5683 H   0  0  0  0  0  0  0  0  0  0  0  0
   10.2033   -0.8310   25.9790 H   0  0  0  0  0  0  0  0  0  0  0  0
    6.3778   -1.9248   22.9518 H   0  0  0  0  0  0  0  0  0  0  0  0
    7.8742   -2.8735   22.8340 H   0  0  0  0  0  0  0  0  0  0  0  0
    7.8887   -1.1453   22.6045 H   0  0  0  0  0  0  0  0  0  0  0  0
   10.3952   -6.1997   27.1036 H   0  0  0  0  0  0  0  0  0  0  0  0
  1  8  1  0  0  0  0
  1 16  3  0  0  0  0
  2  5  2  0  0  0  0
  2  6  1  0  0  0  0
  2 22  1  0  0  0  0
  3  4  2  0  0  0  0
  3  8  1  0  0  0  0
  3 23  1  0  0  0  0
  4  9  1  0  0  0  0
  4 24  1  0  0  0  0
  5 10  1  0  0  0  0
  5 25  1  0  0  0  0
  6 17  2  0  0  0  0
  6 26  1  0  0  0  0
  7 10  2  0  0  0  0
  7 17  1  0  0  0  0
  7 27  1  0  0  0  0
  8 11  2  0  0  0  0
  9 12  2  0  0  0  0
  9 14  1  0  0  0  0
 10 19  1  0  0  0  0
 11 12  1  0  0  0  0
 11 18  1  0  0  0  0
 12 19  1  0  0  0  0
 13 18  1  0  0  0  0
 13 19  1  0  0  0  0
 13 20  2  0  0  0  0
 14 15  1  0  0  0  0
 14 21  2  0  0  0  0
 15 28  1  0  0  0  0
 15 29  1  0  0  0  0
 15 30  1  0  0  0  0
 18 31  1  0  0  0  0
M  END
>  <Chemgauss4 Score>
-6.12904930114746

>  <Number of Confs>
8

$$$$
