DAR-DIA-033-13
 OpenBabel03242009303D

 54 57  0  0  0  0  0  0  0  0999 V2000
   13.5115   -1.5393   20.5255 C   0  0  0  0  0  0  0  0  0  0  0  0
   14.2556   -1.2138   21.6594 C   0  0  0  0  0  0  0  0  0  0  0  0
   12.1177   -1.5116   20.5742 C   0  0  0  0  0  0  0  0  0  0  0  0
   13.6061   -0.8606   22.8422 C   0  0  0  0  0  0  0  0  0  0  0  0
   11.4681   -1.1584   21.7570 C   0  0  0  0  0  0  0  0  0  0  0  0
    6.5627   -5.0988   23.7045 C   0  0  0  0  0  0  0  0  0  0  0  0
    6.6466   -6.2285   24.5073 C   0  0  0  0  0  0  0  0  0  0  0  0
   10.5560   -4.5640   25.8541 C   0  0  0  0  0  0  0  0  0  0  0  0
    8.6859   -4.4347   24.5953 C   0  0  0  0  0  0  0  0  0  0  0  0
   12.2123   -0.8328   22.8910 C   0  0  0  0  0  0  0  0  0  0  0  0
    7.6027   -4.1717   23.7412 C   0  0  0  0  0  0  0  0  0  0  0  0
    9.9031   -3.7823   24.9254 C   0  0  0  0  0  0  0  0  0  0  0  0
    8.6404   -5.6066   25.3448 C   0  0  0  0  0  0  0  0  0  0  0  0
   11.2156   -1.6374   25.0733 C   0  0  0  0  0  0  0  0  0  0  0  0
    6.5353   -2.6287   22.0498 C   0  0  0  0  0  0  0  0  0  0  0  0
    5.6394    0.9878   18.1031 C   0  0  0  0  0  0  0  0  0  0  0  0
    5.3163    1.4876   19.5084 C   0  0  0  0  0  0  0  0  0  0  0  0
    5.4932   -0.5275   17.9968 C   0  0  0  0  0  0  0  0  0  0  0  0
    6.1493    0.7680   20.5678 C   0  0  0  0  0  0  0  0  0  0  0  0
    6.3270   -1.2493   19.0541 C   0  0  0  0  0  0  0  0  0  0  0  0
    5.9907   -0.7529   20.4646 C   0  0  0  0  0  0  0  0  0  0  0  0
   11.5102   -0.4517   24.1679 C   0  0  0  0  0  0  0  0  0  0  0  0
    7.6633   -6.5330   25.3469 N   0  0  0  0  0  0  0  0  0  0  0  0
    9.7815   -5.6678   26.1007 N   0  0  0  0  0  0  0  0  0  0  0  0
   10.3832   -2.5889   24.4347 N   0  0  0  0  0  0  0  0  0  0  0  0
    7.5468   -3.0103   22.9357 N   0  0  0  0  0  0  0  0  0  0  0  0
    6.8563   -1.4100   21.4420 N   0  0  0  0  0  0  0  0  0  0  0  0
   11.6633   -1.7195   26.2126 O   0  0  0  0  0  0  0  0  0  0  0  0
    5.4996   -3.2451   21.8112 O   0  0  0  0  0  0  0  0  0  0  0  0
   14.0174   -1.8130   19.6042 H   0  0  0  0  0  0  0  0  0  0  0  0
   15.3409   -1.2343   21.6213 H   0  0  0  0  0  0  0  0  0  0  0  0
   11.5380   -1.7639   19.6913 H   0  0  0  0  0  0  0  0  0  0  0  0
   14.1940   -0.6086   23.7208 H   0  0  0  0  0  0  0  0  0  0  0  0
   10.3819   -1.1396   21.7857 H   0  0  0  0  0  0  0  0  0  0  0  0
    5.6993   -4.9490   23.0638 H   0  0  0  0  0  0  0  0  0  0  0  0
    5.8443   -6.9615   24.4916 H   0  0  0  0  0  0  0  0  0  0  0  0
   11.5018   -4.4360   26.3624 H   0  0  0  0  0  0  0  0  0  0  0  0
    4.9774    1.4739   17.3777 H   0  0  0  0  0  0  0  0  0  0  0  0
    6.6656    1.2740   17.8417 H   0  0  0  0  0  0  0  0  0  0  0  0
    5.4989    2.5666   19.5667 H   0  0  0  0  0  0  0  0  0  0  0  0
    4.2503    1.3318   19.7152 H   0  0  0  0  0  0  0  0  0  0  0  0
    4.4377   -0.8017   18.1155 H   0  0  0  0  0  0  0  0  0  0  0  0
    5.7990   -0.8580   16.9978 H   0  0  0  0  0  0  0  0  0  0  0  0
    7.2043    1.0445   20.4437 H   0  0  0  0  0  0  0  0  0  0  0  0
    5.8404    1.1124   21.5621 H   0  0  0  0  0  0  0  0  0  0  0  0
    6.1440   -2.3282   18.9805 H   0  0  0  0  0  0  0  0  0  0  0  0
    7.3921   -1.0873   18.8434 H   0  0  0  0  0  0  0  0  0  0  0  0
    4.9751   -1.0370   20.7240 H   0  0  0  0  0  0  0  0  0  0  0  0
   12.1219    0.2709   24.7230 H   0  0  0  0  0  0  0  0  0  0  0  0
   10.5658    0.0543   23.9305 H   0  0  0  0  0  0  0  0  0  0  0  0
   10.0152   -6.4129   26.7423 H   0  0  0  0  0  0  0  0  0  0  0  0
   10.0969   -2.3554   23.4679 H   0  0  0  0  0  0  0  0  0  0  0  0
    8.3406   -2.3796   23.0147 H   0  0  0  0  0  0  0  0  0  0  0  0
    7.7322   -0.9607   21.6918 H   0  0  0  0  0  0  0  0  0  0  0  0
  1  2  1  0  0  0  0
  1  3  2  0  0  0  0
  1 30  1  0  0  0  0
  2  4  2  0  0  0  0
  2 31  1  0  0  0  0
  3  5  1  0  0  0  0
  3 32  1  0  0  0  0
  4 10  1  0  0  0  0
  4 33  1  0  0  0  0
  5 10  2  0  0  0  0
  5 34  1  0  0  0  0
  6  7  1  0  0  0  0
  6 11  2  0  0  0  0
  6 35  1  0  0  0  0
  7 23  2  0  0  0  0
  7 36  1  0  0  0  0
  8 12  2  0  0  0  0
  8 24  1  0  0  0  0
  8 37  1  0  0  0  0
  9 11  1  0  0  0  0
  9 12  1  0  0  0  0
  9 13  2  0  0  0  0
 10 22  1  0  0  0  0
 11 26  1  0  0  0  0
 12 25  1  0  0  0  0
 13 23  1  0  0  0  0
 13 24  1  0  0  0  0
 14 22  1  0  0  0  0
 14 25  1  0  0  0  0
 14 28  2  0  0  0  0
 15 26  1  0  0  0  0
 15 27  1  0  0  0  0
 15 29  2  0  0  0  0
 16 17  1  0  0  0  0
 16 18  1  0  0  0  0
 16 38  1  0  0  0  0
 16 39  1  0  0  0  0
 17 19  1  0  0  0  0
 17 40  1  0  0  0  0
 17 41  1  0  0  0  0
 18 20  1  0  0  0  0
 18 42  1  0  0  0  0
 18 43  1  0  0  0  0
 19 21  1  0  0  0  0
 19 44  1  0  0  0  0
 19 45  1  0  0  0  0
 20 21  1  0  0  0  0
 20 46  1  0  0  0  0
 20 47  1  0  0  0  0
 21 27  1  0  0  0  0
 21 48  1  0  0  0  0
 22 49  1  0  0  0  0
 22 50  1  0  0  0  0
 24 51  1  0  0  0  0
 25 52  1  0  0  0  0
 26 53  1  0  0  0  0
 27 54  1  0  0  0  0
M  END
>  <Chemgauss4 Score>
-7.42735242843628

>  <Number of Confs>
144

$$$$
