CHR-SOS-1f3-11
 OpenBabel03242009303D

 43 45  0  0  0  0  0  0  0  0999 V2000
   10.3290   -5.3363   25.6932 C   0  0  0  0  0  0  0  0  0  0  0  0
    9.3707   -5.4866   24.6909 C   0  0  0  0  0  0  0  0  0  0  0  0
   10.1251   -4.4149   26.7205 C   0  0  0  0  0  0  0  0  0  0  0  0
   13.7391   -0.2642   22.6729 C   0  0  0  0  0  0  0  0  0  0  0  0
    8.0047   -3.7943   25.7430 C   0  0  0  0  0  0  0  0  0  0  0  0
   13.2882    0.6629   23.5986 C   0  0  0  0  0  0  0  0  0  0  0  0
   11.2288   -0.3456   23.7391 C   0  0  0  0  0  0  0  0  0  0  0  0
   12.8641   -1.2714   22.2813 C   0  0  0  0  0  0  0  0  0  0  0  0
   11.5831   -1.3199   22.8198 C   0  0  0  0  0  0  0  0  0  0  0  0
    8.2085   -4.7156   24.7158 C   0  0  0  0  0  0  0  0  0  0  0  0
    8.9630   -3.6439   26.7454 C   0  0  0  0  0  0  0  0  0  0  0  0
    9.3473   -2.4918   22.9122 C   0  0  0  0  0  0  0  0  0  0  0  0
    6.2416   -3.1202   22.3103 C   0  0  0  0  0  0  0  0  0  0  0  0
    6.4490   -4.3379   21.4605 C   0  0  0  0  0  0  0  0  0  0  0  0
    7.4081   -4.0345   22.5825 C   0  0  0  0  0  0  0  0  0  0  0  0
   13.3238   -2.2839   21.2843 C   0  0  0  0  0  0  0  0  0  0  0  0
   12.0512    0.6481   24.1437 N   0  0  0  0  0  0  0  0  0  0  0  0
    7.8927   -3.4625   29.1798 N   0  0  0  0  0  0  0  0  0  0  0  0
   10.6570   -2.3244   22.4538 N   0  0  0  0  0  0  0  0  0  0  0  0
    8.7378   -3.6150   22.3115 N   0  0  0  0  0  0  0  0  0  0  0  0
    8.7603   -1.7839   23.7271 O   0  0  0  0  0  0  0  0  0  0  0  0
   10.0043   -2.1133   28.5746 O   0  0  0  0  0  0  0  0  0  0  0  0
    7.7926   -1.4635   27.5579 O   0  0  0  0  0  0  0  0  0  0  0  0
    7.2738   -4.8616   23.7372 O   0  0  0  0  0  0  0  0  0  0  0  0
    8.7069   -2.4924   28.0330 S   0  0  0  0  0  0  0  0  0  0  0  0
   11.2339   -5.9363   25.6736 H   0  0  0  0  0  0  0  0  0  0  0  0
    9.5354   -6.2058   23.8933 H   0  0  0  0  0  0  0  0  0  0  0  0
   10.8775   -4.3065   27.4970 H   0  0  0  0  0  0  0  0  0  0  0  0
   14.7447   -0.1981   22.2717 H   0  0  0  0  0  0  0  0  0  0  0  0
    7.0972   -3.1954   25.7578 H   0  0  0  0  0  0  0  0  0  0  0  0
   13.9319    1.4683   23.9367 H   0  0  0  0  0  0  0  0  0  0  0  0
   10.2432   -0.3305   24.1949 H   0  0  0  0  0  0  0  0  0  0  0  0
    6.4369   -2.1543   21.8602 H   0  0  0  0  0  0  0  0  0  0  0  0
    5.4111   -3.1262   23.0059 H   0  0  0  0  0  0  0  0  0  0  0  0
    5.7583   -5.1632   21.5848 H   0  0  0  0  0  0  0  0  0  0  0  0
    6.7836   -4.1884   20.4409 H   0  0  0  0  0  0  0  0  0  0  0  0
   13.7848   -3.1374   21.7947 H   0  0  0  0  0  0  0  0  0  0  0  0
   12.4871   -2.6502   20.6768 H   0  0  0  0  0  0  0  0  0  0  0  0
   14.0571   -1.8531   20.5913 H   0  0  0  0  0  0  0  0  0  0  0  0
    8.4020   -3.7338   30.0298 H   0  0  0  0  0  0  0  0  0  0  0  0
    6.8917   -3.2903   29.3329 H   0  0  0  0  0  0  0  0  0  0  0  0
   10.9887   -3.0044   21.7743 H   0  0  0  0  0  0  0  0  0  0  0  0
    9.2887   -4.1610   21.6386 H   0  0  0  0  0  0  0  0  0  0  0  0
  1  2  2  0  0  0  0
  1  3  1  0  0  0  0
  1 26  1  0  0  0  0
  2 10  1  0  0  0  0
  2 27  1  0  0  0  0
  3 11  2  0  0  0  0
  3 28  1  0  0  0  0
  4  6  2  0  0  0  0
  4  8  1  0  0  0  0
  4 29  1  0  0  0  0
  5 10  2  0  0  0  0
  5 11  1  0  0  0  0
  5 30  1  0  0  0  0
  6 17  1  0  0  0  0
  6 31  1  0  0  0  0
  7  9  1  0  0  0  0
  7 17  2  0  0  0  0
  7 32  1  0  0  0  0
  8  9  2  0  0  0  0
  8 16  1  0  0  0  0
  9 19  1  0  0  0  0
 10 24  1  0  0  0  0
 11 25  1  0  0  0  0
 12 19  1  0  0  0  0
 12 20  1  0  0  0  0
 12 21  2  0  0  0  0
 13 14  1  0  0  0  0
 13 15  1  0  0  0  0
 13 33  1  0  0  0  0
 13 34  1  0  0  0  0
 14 15  1  0  0  0  0
 14 35  1  0  0  0  0
 14 36  1  0  0  0  0
 15 20  1  0  0  0  0
 15 24  1  0  0  0  0
 16 37  1  0  0  0  0
 16 38  1  0  0  0  0
 16 39  1  0  0  0  0
 18 25  1  0  0  0  0
 18 40  1  0  0  0  0
 18 41  1  0  0  0  0
 19 42  1  0  0  0  0
 20 43  1  0  0  0  0
 22 25  2  0  0  0  0
 23 25  2  0  0  0  0
M  END
>  <Chemgauss4 Score>
-6.33584976196289

>  <Number of Confs>
200

$$$$
