DAR-DIA-23a-1
 OpenBabel03242009303D

 33 35  0  0  0  0  0  0  0  0999 V2000
   13.0433   -1.1868   22.2782 C   0  0  0  0  0  0  0  0  0  0  0  0
    9.3635   -0.6725   22.5027 C   0  0  0  0  0  0  0  0  0  0  0  0
    7.0445   -5.4901   23.5296 C   0  0  0  0  0  0  0  0  0  0  0  0
   10.6819   -0.5930   22.0545 C   0  0  0  0  0  0  0  0  0  0  0  0
    8.0251   -5.1522   24.4605 C   0  0  0  0  0  0  0  0  0  0  0  0
    9.0559   -1.4270   23.6349 C   0  0  0  0  0  0  0  0  0  0  0  0
   11.3854   -2.0228   23.8706 C   0  0  0  0  0  0  0  0  0  0  0  0
    5.7983   -5.8943   23.9892 C   0  0  0  0  0  0  0  0  0  0  0  0
    7.4812   -5.2763   28.0701 C   0  0  0  0  0  0  0  0  0  0  0  0
   11.6929   -1.2682   22.7384 C   0  0  0  0  0  0  0  0  0  0  0  0
    7.6945   -5.2404   25.8224 C   0  0  0  0  0  0  0  0  0  0  0  0
    8.3661   -5.0000   27.0502 C   0  0  0  0  0  0  0  0  0  0  0  0
   10.0669   -2.1021   24.3188 C   0  0  0  0  0  0  0  0  0  0  0  0
    6.4068   -5.6605   26.1429 C   0  0  0  0  0  0  0  0  0  0  0  0
   10.4073   -4.0054   25.9334 C   0  0  0  0  0  0  0  0  0  0  0  0
    9.7590   -4.5386   27.2157 C   0  0  0  0  0  0  0  0  0  0  0  0
   14.1400   -1.1207   21.9046 N   0  0  0  0  0  0  0  0  0  0  0  0
    5.4247   -5.9979   25.2858 N   0  0  0  0  0  0  0  0  0  0  0  0
    6.2964   -5.6764   27.5084 N   0  0  0  0  0  0  0  0  0  0  0  0
    9.7547   -2.8665   25.4682 N   0  0  0  0  0  0  0  0  0  0  0  0
   11.3782   -4.5625   25.4311 O   0  0  0  0  0  0  0  0  0  0  0  0
    8.5763   -0.1460   21.9707 H   0  0  0  0  0  0  0  0  0  0  0  0
    7.2524   -5.4379   22.4662 H   0  0  0  0  0  0  0  0  0  0  0  0
   10.9054   -0.0015   21.1700 H   0  0  0  0  0  0  0  0  0  0  0  0
    9.0092   -4.8316   24.1346 H   0  0  0  0  0  0  0  0  0  0  0  0
    8.0249   -1.4816   23.9751 H   0  0  0  0  0  0  0  0  0  0  0  0
   12.1716   -2.5513   24.4063 H   0  0  0  0  0  0  0  0  0  0  0  0
    5.0212   -6.1607   23.2776 H   0  0  0  0  0  0  0  0  0  0  0  0
    7.5868   -5.2241   29.1449 H   0  0  0  0  0  0  0  0  0  0  0  0
    9.8245   -3.7358   27.9762 H   0  0  0  0  0  0  0  0  0  0  0  0
   10.4041   -5.3537   27.5983 H   0  0  0  0  0  0  0  0  0  0  0  0
    5.4683   -5.9436   28.0223 H   0  0  0  0  0  0  0  0  0  0  0  0
    8.9608   -2.5466   26.0191 H   0  0  0  0  0  0  0  0  0  0  0  0
  1 10  1  0  0  0  0
  1 17  3  0  0  0  0
  2  4  2  0  0  0  0
  2  6  1  0  0  0  0
  2 22  1  0  0  0  0
  3  5  2  0  0  0  0
  3  8  1  0  0  0  0
  3 23  1  0  0  0  0
  4 10  1  0  0  0  0
  4 24  1  0  0  0  0
  5 11  1  0  0  0  0
  5 25  1  0  0  0  0
  6 13  2  0  0  0  0
  6 26  1  0  0  0  0
  7 10  2  0  0  0  0
  7 13  1  0  0  0  0
  7 27  1  0  0  0  0
  8 18  2  0  0  0  0
  8 28  1  0  0  0  0
  9 12  2  0  0  0  0
  9 19  1  0  0  0  0
  9 29  1  0  0  0  0
 11 12  1  0  0  0  0
 11 14  2  0  0  0  0
 12 16  1  0  0  0  0
 13 20  1  0  0  0  0
 14 18  1  0  0  0  0
 14 19  1  0  0  0  0
 15 16  1  0  0  0  0
 15 20  1  0  0  0  0
 15 21  2  0  0  0  0
 16 30  1  0  0  0  0
 16 31  1  0  0  0  0
 19 32  1  0  0  0  0
 20 33  1  0  0  0  0
M  END
>  <Chemgauss4 Score>
-5.36621856689453

>  <Number of Confs>
112

$$$$
