ADA-UNI-f8e-1
 OpenBabel03242009303D

 43 44  0  0  1  0  0  0  0  0999 V2000
   13.3734   -0.7415   22.5256 C   0  0  0  0  0  0  0  0  0  0  0  0
   12.5061    0.3269   22.7526 C   0  0  0  0  0  0  0  0  0  0  0  0
   12.8842   -2.0478   22.5190 C   0  0  0  0  0  0  0  0  0  0  0  0
    8.5485   -4.5044   28.4825 C   0  0  0  0  0  0  0  0  0  0  0  0
   11.1494    0.0892   22.9732 C   0  0  0  0  0  0  0  0  0  0  0  0
   11.5276   -2.2856   22.7395 C   0  0  0  0  0  0  0  0  0  0  0  0
    8.7378   -3.4701   27.5728 C   0  0  0  0  0  0  0  0  0  0  0  0
    8.3705   -5.7841   27.9818 C   0  0  0  0  0  0  0  0  0  0  0  0
    8.5570   -5.0569   25.8105 C   0  0  0  0  0  0  0  0  0  0  0  0
   10.6601   -1.2171   22.9666 C   0  0  0  0  0  0  0  0  0  0  0  0
    8.7434   -3.7432   26.2094 C   0  0  0  0  0  0  0  0  0  0  0  0
    8.9596   -2.8291   23.8734 C   0  0  0  0  0  0  0  0  0  0  0  0
    4.9305    1.1759   18.7945 C   0  0  0  0  0  0  0  0  0  0  0  0
    6.4402   -1.1887   20.7720 C   0  0  0  0  0  0  0  0  0  0  0  0
    7.1171   -1.2177   22.1301 C   0  0  0  0  0  0  0  0  0  0  0  0
    9.1906   -1.4754   23.2057 C   0  0  2  0  0  0  0  0  0  0  0  0
    8.3699   -6.0880   26.6646 N   0  0  0  0  0  0  0  0  0  0  0  0
    8.9335   -2.7117   25.2597 N   0  0  0  0  0  0  0  0  0  0  0  0
    6.9875   -0.0794   19.9704 N   0  0  0  0  0  0  0  0  0  0  0  0
    8.8357   -3.8546   23.2098 O   0  0  0  0  0  0  0  0  0  0  0  0
    5.9150   -1.0463   17.8235 O   0  0  0  0  0  0  0  0  0  0  0  0
    7.2917    1.0617   17.6913 O   0  0  0  0  0  0  0  0  0  0  0  0
    8.5110   -1.4399   21.9584 O   0  0  0  0  0  0  0  0  0  0  0  0
    6.3668    0.2024   18.4052 S   0  0  0  0  0  0  0  0  0  0  0  0
   14.4295   -0.5561   22.3526 H   0  0  0  0  0  0  0  0  0  0  0  0
   12.8866    1.3442   22.7567 H   0  0  0  0  0  0  0  0  0  0  0  0
   13.5591   -2.8798   22.3412 H   0  0  0  0  0  0  0  0  0  0  0  0
    8.5404   -4.3148   29.5498 H   0  0  0  0  0  0  0  0  0  0  0  0
   10.4810    0.9279   23.1494 H   0  0  0  0  0  0  0  0  0  0  0  0
   11.1554   -3.3066   22.7327 H   0  0  0  0  0  0  0  0  0  0  0  0
    8.8800   -2.4560   27.9367 H   0  0  0  0  0  0  0  0  0  0  0  0
    8.2181   -6.6252   28.6501 H   0  0  0  0  0  0  0  0  0  0  0  0
    8.5516   -5.3325   24.7601 H   0  0  0  0  0  0  0  0  0  0  0  0
    4.4254    1.4326   17.8621 H   0  0  0  0  0  0  0  0  0  0  0  0
    4.2751    0.5823   19.4336 H   0  0  0  0  0  0  0  0  0  0  0  0
    5.2567    2.0783   19.3138 H   0  0  0  0  0  0  0  0  0  0  0  0
    6.6074   -2.1221   20.2252 H   0  0  0  0  0  0  0  0  0  0  0  0
    5.3638   -1.0284   20.8862 H   0  0  0  0  0  0  0  0  0  0  0  0
    6.7156   -2.0393   22.7314 H   0  0  0  0  0  0  0  0  0  0  0  0
    6.9746   -0.2766   22.6712 H   0  0  0  0  0  0  0  0  0  0  0  0
    8.7569   -0.6859   23.8314 H   0  0  0  0  0  0  0  0  0  0  0  0
    9.0619   -1.7808   25.6505 H   0  0  0  0  0  0  0  0  0  0  0  0
    7.2455    0.7478   20.5241 H   0  0  0  0  0  0  0  0  0  0  0  0
  1  2  1  0  0  0  0
  1  3  2  0  0  0  0
  1 25  1  0  0  0  0
  2  5  2  0  0  0  0
  2 26  1  0  0  0  0
  3  6  1  0  0  0  0
  3 27  1  0  0  0  0
  4  7  2  0  0  0  0
  4  8  1  0  0  0  0
  4 28  1  0  0  0  0
  5 10  1  0  0  0  0
  5 29  1  0  0  0  0
  6 10  2  0  0  0  0
  6 30  1  0  0  0  0
  7 11  1  0  0  0  0
  7 31  1  0  0  0  0
  8 17  2  0  0  0  0
  8 32  1  0  0  0  0
  9 11  2  0  0  0  0
  9 17  1  0  0  0  0
  9 33  1  0  0  0  0
 10 16  1  0  0  0  0
 11 18  1  0  0  0  0
 12 16  1  0  0  0  0
 12 18  1  0  0  0  0
 12 20  2  0  0  0  0
 13 24  1  0  0  0  0
 13 34  1  0  0  0  0
 13 35  1  0  0  0  0
 13 36  1  0  0  0  0
 14 15  1  0  0  0  0
 14 19  1  0  0  0  0
 14 37  1  0  0  0  0
 14 38  1  0  0  0  0
 15 23  1  0  0  0  0
 15 39  1  0  0  0  0
 15 40  1  0  0  0  0
 16 23  1  0  0  0  0
 16 41  1  1  0  0  0
 18 42  1  0  0  0  0
 19 24  1  0  0  0  0
 19 43  1  0  0  0  0
 21 24  2  0  0  0  0
 22 24  2  0  0  0  0
M  END
>  <Chemgauss4 Score>
-6.88978099822998

>  <Number of Confs>
200

$$$$
