DAR-DIA-fc9-13
 OpenBabel03242009303D

 37 39  0  0  1  0  0  0  0  0999 V2000
    4.9182   -2.7979   24.0847 C   0  0  0  0  0  0  0  0  0  0  0  0
    6.1971   -2.5601   23.5814 C   0  0  0  0  0  0  0  0  0  0  0  0
    4.7505   -3.6035   25.2110 C   0  0  0  0  0  0  0  0  0  0  0  0
   11.9613   -1.0169   22.4861 C   0  0  0  0  0  0  0  0  0  0  0  0
    7.3084   -3.1282   24.2043 C   0  0  0  0  0  0  0  0  0  0  0  0
    5.8618   -4.1716   25.8338 C   0  0  0  0  0  0  0  0  0  0  0  0
   11.5007   -2.0651   23.2750 C   0  0  0  0  0  0  0  0  0  0  0  0
   12.0178    0.2458   23.0536 C   0  0  0  0  0  0  0  0  0  0  0  0
   11.2106   -0.5233   25.0624 C   0  0  0  0  0  0  0  0  0  0  0  0
    7.1408   -3.9339   25.3305 C   0  0  0  0  0  0  0  0  0  0  0  0
   11.1161   -1.8220   24.5889 C   0  0  0  0  0  0  0  0  0  0  0  0
    9.6987   -2.6114   26.4508 C   0  0  0  0  0  0  0  0  0  0  0  0
    8.9625   -3.8058   27.0309 C   0  0  0  0  0  0  0  0  0  0  0  0
   10.1145   -5.1517   24.4741 C   0  0  0  0  0  0  0  0  0  0  0  0
   11.1319   -4.2616   25.1998 C   0  0  0  0  0  0  0  0  0  0  0  0
    8.9759   -5.6337   25.3717 C   0  0  0  0  0  0  0  0  0  0  0  0
   11.6530    0.5206   24.3260 N   0  0  0  0  0  0  0  0  0  0  0  0
   10.6334   -2.8896   25.4330 N   0  0  0  0  0  0  0  0  0  0  0  0
    8.2533   -4.5027   25.9546 N   0  0  0  0  0  0  0  0  0  0  0  0
    9.4548   -1.4890   26.9022 O   0  0  0  0  0  0  0  0  0  0  0  0
    4.0528   -2.3556   23.5994 H   0  0  0  0  0  0  0  0  0  0  0  0
    6.3275   -1.9330   22.7046 H   0  0  0  0  0  0  0  0  0  0  0  0
    3.7544   -3.7886   25.6027 H   0  0  0  0  0  0  0  0  0  0  0  0
   12.2665   -1.1833   21.4593 H   0  0  0  0  0  0  0  0  0  0  0  0
    8.3007   -2.9369   23.8042 H   0  0  0  0  0  0  0  0  0  0  0  0
    5.7189   -4.7976   26.7110 H   0  0  0  0  0  0  0  0  0  0  0  0
   11.4456   -3.0665   22.8564 H   0  0  0  0  0  0  0  0  0  0  0  0
   12.3689    1.0970   22.4797 H   0  0  0  0  0  0  0  0  0  0  0  0
   10.9254   -0.2711   26.0795 H   0  0  0  0  0  0  0  0  0  0  0  0
    9.6529   -4.4611   27.5765 H   0  0  0  0  0  0  0  0  0  0  0  0
    8.2361   -3.4421   27.7709 H   0  0  0  0  0  0  0  0  0  0  0  0
    9.7226   -4.6369   23.5851 H   0  0  0  0  0  0  0  0  0  0  0  0
   10.6443   -6.0389   24.0984 H   0  0  0  0  0  0  0  0  0  0  0  0
   11.4278   -4.6997   26.1555 H   0  0  0  0  0  0  0  0  0  0  0  0
   12.0347   -4.1932   24.5853 H   0  0  0  0  0  0  0  0  0  0  0  0
    8.2894   -6.2626   24.7921 H   0  0  0  0  0  0  0  0  0  0  0  0
    9.3735   -6.2702   26.1714 H   0  0  0  0  0  0  0  0  0  0  0  0
  1  2  1  0  0  0  0
  1  3  2  0  0  0  0
  1 21  1  0  0  0  0
  2  5  2  0  0  0  0
  2 22  1  0  0  0  0
  3  6  1  0  0  0  0
  3 23  1  0  0  0  0
  4  7  2  0  0  0  0
  4  8  1  0  0  0  0
  4 24  1  0  0  0  0
  5 10  1  0  0  0  0
  5 25  1  0  0  0  0
  6 10  2  0  0  0  0
  6 26  1  0  0  0  0
  7 11  1  0  0  0  0
  7 27  1  0  0  0  0
  8 17  2  0  0  0  0
  8 28  1  0  0  0  0
  9 11  2  0  0  0  0
  9 17  1  0  0  0  0
  9 29  1  0  0  0  0
 10 19  1  0  0  0  0
 11 18  1  0  0  0  0
 12 13  1  0  0  0  0
 12 18  1  0  0  0  0
 12 20  2  0  0  0  0
 13 19  1  0  0  0  0
 13 30  1  0  0  0  0
 13 31  1  0  0  0  0
 14 15  1  0  0  0  0
 14 16  1  0  0  0  0
 14 32  1  0  0  0  0
 14 33  1  0  0  0  0
 15 18  1  0  0  0  0
 15 34  1  0  0  0  0
 15 35  1  0  0  0  0
 16 19  1  0  0  0  0
 16 36  1  0  0  0  0
 16 37  1  0  0  0  0
M  END
>  <Chemgauss4 Score>
-5.4485445022583

>  <Number of Confs>
64

$$$$
