NAU-LAT-ec9-2
 OpenBabel03242009303D

 28 30  0  0  0  0  0  0  0  0999 V2000
   11.3687   -0.7673   24.6777 C   0  0  0  0  0  0  0  0  0  0  0  0
   11.6596   -2.2709   22.8233 C   0  0  0  0  0  0  0  0  0  0  0  0
   10.0016   -2.9428   26.0311 C   0  0  0  0  0  0  0  0  0  0  0  0
    9.3370   -3.7164   23.8108 C   0  0  0  0  0  0  0  0  0  0  0  0
   12.2753    0.0809   24.0625 C   0  0  0  0  0  0  0  0  0  0  0  0
   12.5530   -1.3554   22.2910 C   0  0  0  0  0  0  0  0  0  0  0  0
   11.0603   -1.9636   24.0398 C   0  0  0  0  0  0  0  0  0  0  0  0
   10.1203   -2.8865   24.6402 C   0  0  0  0  0  0  0  0  0  0  0  0
    9.0898   -3.8413   26.5396 C   0  0  0  0  0  0  0  0  0  0  0  0
    8.4183   -4.6204   24.3551 C   0  0  0  0  0  0  0  0  0  0  0  0
    8.3130   -4.6639   25.7296 C   0  0  0  0  0  0  0  0  0  0  0  0
    8.7207   -4.1499   27.9192 C   0  0  0  0  0  0  0  0  0  0  0  0
    7.6501   -5.2354   27.8464 C   0  0  0  0  0  0  0  0  0  0  0  0
    7.5982   -5.4901   23.4693 C   0  0  0  0  0  0  0  0  0  0  0  0
   12.8776   -0.1833   22.8813 N   0  0  0  0  0  0  0  0  0  0  0  0
    7.4740   -5.4763   26.4959 N   0  0  0  0  0  0  0  0  0  0  0  0
    9.1436   -3.6745   28.9446 O   0  0  0  0  0  0  0  0  0  0  0  0
    7.1277   -5.7185   28.8266 O   0  0  0  0  0  0  0  0  0  0  0  0
    7.8416   -5.3049   22.1365 F   0  0  0  0  0  0  0  0  0  0  0  0
    7.7900   -6.8274   23.6804 F   0  0  0  0  0  0  0  0  0  0  0  0
    6.2560   -5.2871   23.6246 F   0  0  0  0  0  0  0  0  0  0  0  0
   10.9225   -0.4931   25.6283 H   0  0  0  0  0  0  0  0  0  0  0  0
   11.4430   -3.1946   22.2963 H   0  0  0  0  0  0  0  0  0  0  0  0
   10.5958   -2.3132   26.6843 H   0  0  0  0  0  0  0  0  0  0  0  0
    9.4454   -3.6553   22.7287 H   0  0  0  0  0  0  0  0  0  0  0  0
   12.5509    1.0254   24.5202 H   0  0  0  0  0  0  0  0  0  0  0  0
   13.0464   -1.5475   21.3440 H   0  0  0  0  0  0  0  0  0  0  0  0
    6.8232   -6.1519   26.1134 H   0  0  0  0  0  0  0  0  0  0  0  0
  1  5  2  0  0  0  0
  1  7  1  0  0  0  0
  1 22  1  0  0  0  0
  2  6  1  0  0  0  0
  2  7  2  0  0  0  0
  2 23  1  0  0  0  0
  3  8  1  0  0  0  0
  3  9  2  0  0  0  0
  3 24  1  0  0  0  0
  4  8  2  0  0  0  0
  4 10  1  0  0  0  0
  4 25  1  0  0  0  0
  5 15  1  0  0  0  0
  5 26  1  0  0  0  0
  6 15  2  0  0  0  0
  6 27  1  0  0  0  0
  7  8  1  0  0  0  0
  9 11  1  0  0  0  0
  9 12  1  0  0  0  0
 10 11  2  0  0  0  0
 10 14  1  0  0  0  0
 11 16  1  0  0  0  0
 12 13  1  0  0  0  0
 12 17  2  0  0  0  0
 13 16  1  0  0  0  0
 13 18  2  0  0  0  0
 14 19  1  0  0  0  0
 14 20  1  0  0  0  0
 14 21  1  0  0  0  0
 16 28  1  0  0  0  0
M  END
>  <Chemgauss4 Score>
-5.25276327133179

>  <Number of Confs>
1

$$$$
