CHR-SOS-f73-5
 OpenBabel03242009303D

 40 42  0  0  0  0  0  0  0  0999 V2000
   10.3323   -4.4030   27.0467 C   0  0  0  0  0  0  0  0  0  0  0  0
   13.1106   -1.4515   22.0950 C   0  0  0  0  0  0  0  0  0  0  0  0
    9.5423   -3.8862   26.0259 C   0  0  0  0  0  0  0  0  0  0  0  0
   11.7702   -1.6199   22.4239 C   0  0  0  0  0  0  0  0  0  0  0  0
    9.8785   -4.2690   28.3490 C   0  0  0  0  0  0  0  0  0  0  0  0
   13.8629   -0.5798   22.8656 C   0  0  0  0  0  0  0  0  0  0  0  0
    7.9750   -3.1775   27.6684 C   0  0  0  0  0  0  0  0  0  0  0  0
   12.0672   -0.0734   24.2061 C   0  0  0  0  0  0  0  0  0  0  0  0
    8.3396   -3.2601   26.3342 C   0  0  0  0  0  0  0  0  0  0  0  0
   11.2307   -0.9213   23.4982 C   0  0  0  0  0  0  0  0  0  0  0  0
    9.3090   -0.9551   25.1255 C   0  0  0  0  0  0  0  0  0  0  0  0
    6.2873   -3.0972   23.1164 C   0  0  0  0  0  0  0  0  0  0  0  0
    5.2453   -2.7160   24.1615 C   0  0  0  0  0  0  0  0  0  0  0  0
    7.5588   -3.4348   23.8902 C   0  0  0  0  0  0  0  0  0  0  0  0
    5.9375   -2.8448   25.5155 C   0  0  0  0  0  0  0  0  0  0  0  0
    7.4485   -2.6824   25.2353 C   0  0  0  0  0  0  0  0  0  0  0  0
    7.8126   -1.1941   25.0581 C   0  0  0  0  0  0  0  0  0  0  0  0
    8.7161   -3.6675   28.6874 N   0  0  0  0  0  0  0  0  0  0  0  0
   13.3740    0.1161   23.9165 N   0  0  0  0  0  0  0  0  0  0  0  0
    9.8700   -1.0717   23.8569 N   0  0  0  0  0  0  0  0  0  0  0  0
    9.8879   -0.6989   26.1761 O   0  0  0  0  0  0  0  0  0  0  0  0
   11.2734   -4.8953   26.8299 H   0  0  0  0  0  0  0  0  0  0  0  0
   13.5524   -1.9859   21.2617 H   0  0  0  0  0  0  0  0  0  0  0  0
    9.8712   -3.9759   24.9942 H   0  0  0  0  0  0  0  0  0  0  0  0
   11.1557   -2.2974   21.8369 H   0  0  0  0  0  0  0  0  0  0  0  0
   10.4584   -4.6551   29.1810 H   0  0  0  0  0  0  0  0  0  0  0  0
   14.9130   -0.4130   22.6495 H   0  0  0  0  0  0  0  0  0  0  0  0
    7.0476   -2.7003   27.9697 H   0  0  0  0  0  0  0  0  0  0  0  0
   11.7041    0.4987   25.0548 H   0  0  0  0  0  0  0  0  0  0  0  0
    5.9590   -3.9437   22.5046 H   0  0  0  0  0  0  0  0  0  0  0  0
    6.4635   -2.2541   22.4387 H   0  0  0  0  0  0  0  0  0  0  0  0
    4.9118   -1.6849   23.9984 H   0  0  0  0  0  0  0  0  0  0  0  0
    4.3597   -3.3574   24.1060 H   0  0  0  0  0  0  0  0  0  0  0  0
    7.5961   -4.5200   24.0577 H   0  0  0  0  0  0  0  0  0  0  0  0
    8.4607   -3.1666   23.3287 H   0  0  0  0  0  0  0  0  0  0  0  0
    5.5605   -2.1116   26.2369 H   0  0  0  0  0  0  0  0  0  0  0  0
    5.7271   -3.8401   25.9297 H   0  0  0  0  0  0  0  0  0  0  0  0
    7.3238   -0.6147   25.8443 H   0  0  0  0  0  0  0  0  0  0  0  0
    7.4405   -0.8519   24.0900 H   0  0  0  0  0  0  0  0  0  0  0  0
    9.2392   -1.2901   23.0884 H   0  0  0  0  0  0  0  0  0  0  0  0
  1  3  2  0  0  0  0
  1  5  1  0  0  0  0
  1 22  1  0  0  0  0
  2  4  2  0  0  0  0
  2  6  1  0  0  0  0
  2 23  1  0  0  0  0
  3  9  1  0  0  0  0
  3 24  1  0  0  0  0
  4 10  1  0  0  0  0
  4 25  1  0  0  0  0
  5 18  2  0  0  0  0
  5 26  1  0  0  0  0
  6 19  2  0  0  0  0
  6 27  1  0  0  0  0
  7  9  2  0  0  0  0
  7 18  1  0  0  0  0
  7 28  1  0  0  0  0
  8 10  2  0  0  0  0
  8 19  1  0  0  0  0
  8 29  1  0  0  0  0
  9 16  1  0  0  0  0
 10 20  1  0  0  0  0
 11 17  1  0  0  0  0
 11 20  1  0  0  0  0
 11 21  2  0  0  0  0
 12 13  1  0  0  0  0
 12 14  1  0  0  0  0
 12 30  1  0  0  0  0
 12 31  1  0  0  0  0
 13 15  1  0  0  0  0
 13 32  1  0  0  0  0
 13 33  1  0  0  0  0
 14 16  1  0  0  0  0
 14 34  1  0  0  0  0
 14 35  1  0  0  0  0
 15 16  1  0  0  0  0
 15 36  1  0  0  0  0
 15 37  1  0  0  0  0
 16 17  1  0  0  0  0
 17 38  1  0  0  0  0
 17 39  1  0  0  0  0
 20 40  1  0  0  0  0
M  END
>  <Chemgauss4 Score>
-5.72601556777954

>  <Number of Confs>
197

$$$$
