CHR-SOS-54d-2
 OpenBabel03242009303D

 48 50  0  0  1  0  0  0  0  0999 V2000
    8.7816   -1.4907   22.7354 C   0  0  0  0  0  0  0  0  0  0  0  0
    9.9812   -1.4620   22.7796 C   0  0  0  0  0  0  0  0  0  0  0  0
    8.2918   -3.9580   28.0804 C   0  0  0  0  0  0  0  0  0  0  0  0
    9.1734   -3.4609   27.1270 C   0  0  0  0  0  0  0  0  0  0  0  0
    7.8735   -5.2729   27.9539 C   0  0  0  0  0  0  0  0  0  0  0  0
    9.1267   -5.5826   26.0534 C   0  0  0  0  0  0  0  0  0  0  0  0
    9.6036   -4.2822   26.0908 C   0  0  0  0  0  0  0  0  0  0  0  0
   11.0603   -2.5337   25.0125 C   0  0  0  0  0  0  0  0  0  0  0  0
   14.0034   -0.1213   21.8022 C   0  0  0  0  0  0  0  0  0  0  0  0
   13.6012   -1.5173   21.3400 C   0  0  0  0  0  0  0  0  0  0  0  0
   13.4907    0.1753   23.2069 C   0  0  0  0  0  0  0  0  0  0  0  0
    6.5461   -0.8795   24.8799 C   0  0  0  0  0  0  0  0  0  0  0  0
    6.7071   -2.0857   23.9609 C   0  0  0  0  0  0  0  0  0  0  0  0
   12.0888   -1.7306   21.4353 C   0  0  0  0  0  0  0  0  0  0  0  0
   11.9777   -0.0292   23.3114 C   0  0  0  0  0  0  0  0  0  0  0  0
    6.7007    0.3382   23.9799 C   0  0  0  0  0  0  0  0  0  0  0  0
    7.3117   -1.5259   22.6813 C   0  0  1  0  0  0  0  0  0  0  0  0
   11.5180   -1.4249   22.8371 C   0  0  0  0  0  0  0  0  0  0  0  0
   11.9645   -2.4584   23.8007 C   0  0  0  0  0  0  0  0  0  0  0  0
    8.2696   -6.1009   26.9614 N   0  0  0  0  0  0  0  0  0  0  0  0
    6.7227   -0.1871   22.6166 N   0  0  0  0  0  0  0  0  0  0  0  0
   10.5002   -3.8047   25.1055 N   0  0  0  0  0  0  0  0  0  0  0  0
   10.8835   -1.5839   25.7681 O   0  0  0  0  0  0  0  0  0  0  0  0
    7.9432   -3.3358   28.8968 H   0  0  0  0  0  0  0  0  0  0  0  0
    9.5185   -2.4330   27.2009 H   0  0  0  0  0  0  0  0  0  0  0  0
    7.1854   -5.7077   28.6713 H   0  0  0  0  0  0  0  0  0  0  0  0
    9.4264   -6.2715   25.2693 H   0  0  0  0  0  0  0  0  0  0  0  0
   15.0968   -0.0326   21.7865 H   0  0  0  0  0  0  0  0  0  0  0  0
   13.6133    0.6257   21.1018 H   0  0  0  0  0  0  0  0  0  0  0  0
   13.9362   -1.6736   20.3074 H   0  0  0  0  0  0  0  0  0  0  0  0
   14.1148   -2.2669   21.9533 H   0  0  0  0  0  0  0  0  0  0  0  0
   13.9978   -0.4782   23.9261 H   0  0  0  0  0  0  0  0  0  0  0  0
   13.7483    1.2052   23.4826 H   0  0  0  0  0  0  0  0  0  0  0  0
    5.5676   -0.8990   25.3717 H   0  0  0  0  0  0  0  0  0  0  0  0
    7.3160   -0.8790   25.6594 H   0  0  0  0  0  0  0  0  0  0  0  0
    7.3147   -2.8700   24.4260 H   0  0  0  0  0  0  0  0  0  0  0  0
    5.7152   -2.5105   23.7570 H   0  0  0  0  0  0  0  0  0  0  0  0
   11.5942   -1.1129   20.6740 H   0  0  0  0  0  0  0  0  0  0  0  0
   11.8742   -2.7759   21.1746 H   0  0  0  0  0  0  0  0  0  0  0  0
   11.6854    0.1134   24.3606 H   0  0  0  0  0  0  0  0  0  0  0  0
   11.4722    0.7591   22.7383 H   0  0  0  0  0  0  0  0  0  0  0  0
    5.8837    1.0534   24.1176 H   0  0  0  0  0  0  0  0  0  0  0  0
    7.6383    0.8623   24.1972 H   0  0  0  0  0  0  0  0  0  0  0  0
    7.0003   -2.1245   21.8160 H   0  0  0  0  0  0  0  0  0  0  0  0
   12.9780   -2.2178   24.1202 H   0  0  0  0  0  0  0  0  0  0  0  0
   11.9717   -3.4230   23.2942 H   0  0  0  0  0  0  0  0  0  0  0  0
    5.7565   -0.2725   22.2953 H   0  0  0  0  0  0  0  0  0  0  0  0
   10.7573   -4.4792   24.3878 H   0  0  0  0  0  0  0  0  0  0  0  0
  1  2  3  0  0  0  0
  1 17  1  0  0  0  0
  2 18  1  0  0  0  0
  3  4  2  0  0  0  0
  3  5  1  0  0  0  0
  3 24  1  0  0  0  0
  4  7  1  0  0  0  0
  4 25  1  0  0  0  0
  5 20  2  0  0  0  0
  5 26  1  0  0  0  0
  6  7  2  0  0  0  0
  6 20  1  0  0  0  0
  6 27  1  0  0  0  0
  7 22  1  0  0  0  0
  8 19  1  0  0  0  0
  8 22  1  0  0  0  0
  8 23  2  0  0  0  0
  9 10  1  0  0  0  0
  9 11  1  0  0  0  0
  9 28  1  0  0  0  0
  9 29  1  0  0  0  0
 10 14  1  0  0  0  0
 10 30  1  0  0  0  0
 10 31  1  0  0  0  0
 11 15  1  0  0  0  0
 11 32  1  0  0  0  0
 11 33  1  0  0  0  0
 12 13  1  0  0  0  0
 12 16  1  0  0  0  0
 12 34  1  0  0  0  0
 12 35  1  0  0  0  0
 13 17  1  0  0  0  0
 13 36  1  0  0  0  0
 13 37  1  0  0  0  0
 14 18  1  0  0  0  0
 14 38  1  0  0  0  0
 14 39  1  0  0  0  0
 15 18  1  0  0  0  0
 15 40  1  0  0  0  0
 15 41  1  0  0  0  0
 16 21  1  0  0  0  0
 16 42  1  0  0  0  0
 16 43  1  0  0  0  0
 17 21  1  0  0  0  0
 17 44  1  6  0  0  0
 18 19  1  0  0  0  0
 19 45  1  0  0  0  0
 19 46  1  0  0  0  0
 21 47  1  0  0  0  0
 22 48  1  0  0  0  0
M  END
>  <Chemgauss4 Score>
-5.733567237854

>  <Number of Confs>
146

$$$$
