CHR-SOS-709-18
 OpenBabel03242009303D

 36 38  0  0  0  0  0  0  0  0999 V2000
    7.3384   -5.8052   26.4153 C   0  0  0  0  0  0  0  0  0  0  0  0
    8.1681   -6.3934   25.4607 C   0  0  0  0  0  0  0  0  0  0  0  0
    7.7254   -4.6197   27.0403 C   0  0  0  0  0  0  0  0  0  0  0  0
    5.4514   -0.3045   19.1743 C   0  0  0  0  0  0  0  0  0  0  0  0
    6.4043   -0.7120   20.1012 C   0  0  0  0  0  0  0  0  0  0  0  0
    9.3848   -5.7962   25.1311 C   0  0  0  0  0  0  0  0  0  0  0  0
    8.9421   -4.0225   26.7107 C   0  0  0  0  0  0  0  0  0  0  0  0
    9.8041   -2.8095   23.7409 C   0  0  0  0  0  0  0  0  0  0  0  0
   11.0037   -1.2561   22.3322 C   0  0  0  0  0  0  0  0  0  0  0  0
   12.1789   -2.4873   24.0469 C   0  0  0  0  0  0  0  0  0  0  0  0
    5.8913    0.0776   17.9172 C   0  0  0  0  0  0  0  0  0  0  0  0
    8.0860   -0.3240   18.4649 C   0  0  0  0  0  0  0  0  0  0  0  0
    9.8122   -1.8813   22.6998 C   0  0  0  0  0  0  0  0  0  0  0  0
    7.7490   -0.7247   19.7477 C   0  0  0  0  0  0  0  0  0  0  0  0
    9.7718   -4.6107   25.7561 C   0  0  0  0  0  0  0  0  0  0  0  0
   10.9874   -3.1125   24.4145 C   0  0  0  0  0  0  0  0  0  0  0  0
   12.1871   -1.5590   23.0057 C   0  0  0  0  0  0  0  0  0  0  0  0
    8.5788   -1.5667   21.9962 C   0  0  0  0  0  0  0  0  0  0  0  0
    7.1887    0.0783   17.5372 N   0  0  0  0  0  0  0  0  0  0  0  0
    8.7436   -1.1348   20.6710 N   0  0  0  0  0  0  0  0  0  0  0  0
    7.4742   -1.6457   22.5513 O   0  0  0  0  0  0  0  0  0  0  0  0
   10.9803   -4.0182   25.4305 O   0  0  0  0  0  0  0  0  0  0  0  0
   13.6569   -0.7870   22.5537 Cl  0  0  0  0  0  0  0  0  0  0  0  0
    6.3907   -6.2697   26.6717 H   0  0  0  0  0  0  0  0  0  0  0  0
    7.8670   -7.3166   24.9740 H   0  0  0  0  0  0  0  0  0  0  0  0
    7.0787   -4.1622   27.7834 H   0  0  0  0  0  0  0  0  0  0  0  0
    4.3976   -0.2866   19.4280 H   0  0  0  0  0  0  0  0  0  0  0  0
    6.0884   -1.0172   21.0953 H   0  0  0  0  0  0  0  0  0  0  0  0
   10.0272   -6.2602   24.3877 H   0  0  0  0  0  0  0  0  0  0  0  0
    9.2392   -3.1000   27.2021 H   0  0  0  0  0  0  0  0  0  0  0  0
    8.8772   -3.2985   24.0316 H   0  0  0  0  0  0  0  0  0  0  0  0
   11.0070   -0.5331   21.5194 H   0  0  0  0  0  0  0  0  0  0  0  0
   13.0969   -2.7296   24.5772 H   0  0  0  0  0  0  0  0  0  0  0  0
    5.1876    0.4045   17.1587 H   0  0  0  0  0  0  0  0  0  0  0  0
    9.1190   -0.3127   18.1301 H   0  0  0  0  0  0  0  0  0  0  0  0
    9.7010   -1.1133   20.3286 H   0  0  0  0  0  0  0  0  0  0  0  0
  1  2  1  0  0  0  0
  1  3  2  0  0  0  0
  1 24  1  0  0  0  0
  2  6  2  0  0  0  0
  2 25  1  0  0  0  0
  3  7  1  0  0  0  0
  3 26  1  0  0  0  0
  4  5  2  0  0  0  0
  4 11  1  0  0  0  0
  4 27  1  0  0  0  0
  5 14  1  0  0  0  0
  5 28  1  0  0  0  0
  6 15  1  0  0  0  0
  6 29  1  0  0  0  0
  7 15  2  0  0  0  0
  7 30  1  0  0  0  0
  8 13  2  0  0  0  0
  8 16  1  0  0  0  0
  8 31  1  0  0  0  0
  9 13  1  0  0  0  0
  9 17  2  0  0  0  0
  9 32  1  0  0  0  0
 10 16  2  0  0  0  0
 10 17  1  0  0  0  0
 10 33  1  0  0  0  0
 11 19  2  0  0  0  0
 11 34  1  0  0  0  0
 12 14  2  0  0  0  0
 12 19  1  0  0  0  0
 12 35  1  0  0  0  0
 13 18  1  0  0  0  0
 14 20  1  0  0  0  0
 15 22  1  0  0  0  0
 16 22  1  0  0  0  0
 17 23  1  0  0  0  0
 18 20  1  0  0  0  0
 18 21  2  0  0  0  0
 20 36  1  0  0  0  0
M  END
>  <Chemgauss4 Score>
-6.00681209564209

>  <Number of Confs>
116

$$$$
