ADA-UNI-f8e-11
 OpenBabel03242009303D

 39 40  0  0  1  0  0  0  0  0999 V2000
   12.6940   -1.3634   22.1339 C   0  0  0  0  0  0  0  0  0  0  0  0
    8.9345   -4.2159   28.2805 C   0  0  0  0  0  0  0  0  0  0  0  0
   11.4234   -1.9152   21.9712 C   0  0  0  0  0  0  0  0  0  0  0  0
    9.0239   -3.3387   27.2054 C   0  0  0  0  0  0  0  0  0  0  0  0
   12.8954   -0.3360   23.0557 C   0  0  0  0  0  0  0  0  0  0  0  0
   10.5553   -0.4122   23.6518 C   0  0  0  0  0  0  0  0  0  0  0  0
    8.6827   -5.5510   28.0090 C   0  0  0  0  0  0  0  0  0  0  0  0
    8.6127   -5.1698   25.7445 C   0  0  0  0  0  0  0  0  0  0  0  0
   10.3540   -1.4396   22.7301 C   0  0  0  0  0  0  0  0  0  0  0  0
    8.8610   -3.8168   25.9099 C   0  0  0  0  0  0  0  0  0  0  0  0
   11.8260    0.1396   23.8146 C   0  0  0  0  0  0  0  0  0  0  0  0
    8.8065   -3.2772   23.4495 C   0  0  0  0  0  0  0  0  0  0  0  0
    6.7034    2.2243   21.3189 C   0  0  0  0  0  0  0  0  0  0  0  0
    7.8363   -1.0247   22.8247 C   0  0  0  0  0  0  0  0  0  0  0  0
    7.8299    0.1827   21.8876 C   0  0  0  0  0  0  0  0  0  0  0  0
    8.9697   -2.0405   22.5513 C   0  0  1  0  0  0  0  0  0  0  0  0
    8.5189   -6.0524   26.7643 N   0  0  0  0  0  0  0  0  0  0  0  0
    8.9462   -2.9485   24.7959 N   0  0  0  0  0  0  0  0  0  0  0  0
    6.7016    1.0822   22.2104 N   0  0  0  0  0  0  0  0  0  0  0  0
    8.5948   -4.3911   22.9784 O   0  0  0  0  0  0  0  0  0  0  0  0
   12.0748    1.4080   24.9508 Cl  0  0  0  0  0  0  0  0  0  0  0  0
   13.5264   -1.7339   21.5427 H   0  0  0  0  0  0  0  0  0  0  0  0
    9.0581   -3.8653   29.2989 H   0  0  0  0  0  0  0  0  0  0  0  0
   11.2756   -2.7154   21.2506 H   0  0  0  0  0  0  0  0  0  0  0  0
    9.2206   -2.2856   27.3882 H   0  0  0  0  0  0  0  0  0  0  0  0
   13.8911    0.0849   23.1717 H   0  0  0  0  0  0  0  0  0  0  0  0
    9.7184   -0.0452   24.2415 H   0  0  0  0  0  0  0  0  0  0  0  0
    8.6029   -6.2753   28.8130 H   0  0  0  0  0  0  0  0  0  0  0  0
    8.4768   -5.6023   24.7577 H   0  0  0  0  0  0  0  0  0  0  0  0
    6.5868    1.8800   20.2807 H   0  0  0  0  0  0  0  0  0  0  0  0
    5.8700    2.8936   21.5789 H   0  0  0  0  0  0  0  0  0  0  0  0
    7.6548    2.7670   21.4204 H   0  0  0  0  0  0  0  0  0  0  0  0
    7.9242   -0.6679   23.8600 H   0  0  0  0  0  0  0  0  0  0  0  0
    6.8584   -1.5183   22.7578 H   0  0  0  0  0  0  0  0  0  0  0  0
    7.7104   -0.1535   20.8522 H   0  0  0  0  0  0  0  0  0  0  0  0
    8.7651    0.7470   21.9478 H   0  0  0  0  0  0  0  0  0  0  0  0
    8.8581   -2.3914   21.5160 H   0  0  0  0  0  0  0  0  0  0  0  0
    9.1311   -1.9693   25.0025 H   0  0  0  0  0  0  0  0  0  0  0  0
    6.8085    1.3872   23.1701 H   0  0  0  0  0  0  0  0  0  0  0  0
  1  3  2  0  0  0  0
  1  5  1  0  0  0  0
  1 22  1  0  0  0  0
  2  4  2  0  0  0  0
  2  7  1  0  0  0  0
  2 23  1  0  0  0  0
  3  9  1  0  0  0  0
  3 24  1  0  0  0  0
  4 10  1  0  0  0  0
  4 25  1  0  0  0  0
  5 11  2  0  0  0  0
  5 26  1  0  0  0  0
  6  9  2  0  0  0  0
  6 11  1  0  0  0  0
  6 27  1  0  0  0  0
  7 17  2  0  0  0  0
  7 28  1  0  0  0  0
  8 10  2  0  0  0  0
  8 17  1  0  0  0  0
  8 29  1  0  0  0  0
  9 16  1  0  0  0  0
 10 18  1  0  0  0  0
 11 21  1  0  0  0  0
 12 16  1  0  0  0  0
 12 18  1  0  0  0  0
 12 20  2  0  0  0  0
 13 19  1  0  0  0  0
 13 30  1  0  0  0  0
 13 31  1  0  0  0  0
 13 32  1  0  0  0  0
 14 15  1  0  0  0  0
 14 16  1  0  0  0  0
 14 33  1  0  0  0  0
 14 34  1  0  0  0  0
 15 19  1  0  0  0  0
 15 35  1  0  0  0  0
 15 36  1  0  0  0  0
 16 37  1  6  0  0  0
 18 38  1  0  0  0  0
 19 39  1  0  0  0  0
M  END
>  <Chemgauss4 Score>
-5.25646352767944

>  <Number of Confs>
200

$$$$
