DAR-DIA-43a-1
 OpenBabel03242009303D

 39 41  0  0  1  0  0  0  0  0999 V2000
    5.4544   -5.7084   26.6120 C   0  0  0  0  0  0  0  0  0  0  0  0
   13.1091   -1.1416   22.1038 C   0  0  0  0  0  0  0  0  0  0  0  0
    6.5196   -4.8747   26.9525 C   0  0  0  0  0  0  0  0  0  0  0  0
   11.7635   -1.3291   22.3997 C   0  0  0  0  0  0  0  0  0  0  0  0
    5.2855   -6.1194   25.2897 C   0  0  0  0  0  0  0  0  0  0  0  0
    7.2469   -4.8629   24.6486 C   0  0  0  0  0  0  0  0  0  0  0  0
   13.8541   -0.3388   22.9525 C   0  0  0  0  0  0  0  0  0  0  0  0
   12.0418    0.0669   24.3050 C   0  0  0  0  0  0  0  0  0  0  0  0
    7.4158   -4.4519   25.9708 C   0  0  0  0  0  0  0  0  0  0  0  0
   11.2119   -0.7167   23.5195 C   0  0  0  0  0  0  0  0  0  0  0  0
    6.1817   -5.6967   24.3081 C   0  0  0  0  0  0  0  0  0  0  0  0
    8.5205   -2.2151   25.6388 C   0  0  0  0  0  0  0  0  0  0  0  0
    9.5168   -2.0669   24.7567 C   0  0  0  0  0  0  0  0  0  0  0  0
   10.1336   -5.5189   25.8216 C   0  0  0  0  0  0  0  0  0  0  0  0
   10.4095   -3.2679   24.7186 C   0  0  0  0  0  0  0  0  0  0  0  0
    8.5724   -3.5449   26.3414 C   0  0  2  0  0  0  0  0  0  0  0  0
    9.9947   -4.0356   25.9796 C   0  0  1  0  0  0  0  0  0  0  0  0
    9.7559   -0.9011   23.8679 C   0  0  0  0  0  0  0  0  0  0  0  0
   13.3533    0.2725   24.0494 N   0  0  0  0  0  0  0  0  0  0  0  0
    9.7768   -6.2317   26.9418 N   0  0  0  0  0  0  0  0  0  0  0  0
   10.5167   -6.0305   24.7724 O   0  0  0  0  0  0  0  0  0  0  0  0
    5.9721   -6.2031   22.6767 Cl  0  0  0  0  0  0  0  0  0  0  0  0
    4.7567   -6.0373   27.3767 H   0  0  0  0  0  0  0  0  0  0  0  0
   13.5606   -1.6092   21.2363 H   0  0  0  0  0  0  0  0  0  0  0  0
    6.6434   -4.5593   27.9852 H   0  0  0  0  0  0  0  0  0  0  0  0
   11.1531   -1.9535   21.7530 H   0  0  0  0  0  0  0  0  0  0  0  0
    4.4506   -6.7691   25.0388 H   0  0  0  0  0  0  0  0  0  0  0  0
    7.9487   -4.5309   23.8869 H   0  0  0  0  0  0  0  0  0  0  0  0
   14.9079   -0.1609   22.7649 H   0  0  0  0  0  0  0  0  0  0  0  0
   11.6676    0.5697   25.1914 H   0  0  0  0  0  0  0  0  0  0  0  0
    7.7851   -1.4484   25.8585 H   0  0  0  0  0  0  0  0  0  0  0  0
   10.2625   -3.8515   23.8045 H   0  0  0  0  0  0  0  0  0  0  0  0
   11.4571   -2.9535   24.7750 H   0  0  0  0  0  0  0  0  0  0  0  0
    8.5033   -3.3553   27.4239 H   0  0  0  0  0  0  0  0  0  0  0  0
   10.6964   -3.7643   26.8302 H   0  0  0  0  0  0  0  0  0  0  0  0
    9.3816    0.0134   24.3484 H   0  0  0  0  0  0  0  0  0  0  0  0
    9.1656   -1.0135   22.9485 H   0  0  0  0  0  0  0  0  0  0  0  0
    9.4584   -5.7245   27.7609 H   0  0  0  0  0  0  0  0  0  0  0  0
    9.8191   -7.2449   26.9823 H   0  0  0  0  0  0  0  0  0  0  0  0
  1  3  2  0  0  0  0
  1  5  1  0  0  0  0
  1 23  1  0  0  0  0
  2  4  2  0  0  0  0
  2  7  1  0  0  0  0
  2 24  1  0  0  0  0
  3  9  1  0  0  0  0
  3 25  1  0  0  0  0
  4 10  1  0  0  0  0
  4 26  1  0  0  0  0
  5 11  2  0  0  0  0
  5 27  1  0  0  0  0
  6  9  2  0  0  0  0
  6 11  1  0  0  0  0
  6 28  1  0  0  0  0
  7 19  2  0  0  0  0
  7 29  1  0  0  0  0
  8 10  2  0  0  0  0
  8 19  1  0  0  0  0
  8 30  1  0  0  0  0
  9 16  1  0  0  0  0
 10 18  1  0  0  0  0
 11 22  1  0  0  0  0
 12 13  2  0  0  0  0
 12 16  1  0  0  0  0
 12 31  1  0  0  0  0
 13 15  1  0  0  0  0
 13 18  1  0  0  0  0
 14 17  1  0  0  0  0
 14 20  1  0  0  0  0
 14 21  2  0  0  0  0
 15 17  1  0  0  0  0
 15 32  1  0  0  0  0
 15 33  1  0  0  0  0
 16 17  1  0  0  0  0
 16 34  1  1  0  0  0
 17 35  1  1  0  0  0
 18 36  1  0  0  0  0
 18 37  1  0  0  0  0
 20 38  1  0  0  0  0
 20 39  1  0  0  0  0
M  END
>  <Chemgauss4 Score>
-6.63171863555908

>  <Number of Confs>
200

$$$$
