ELE-IMP-dfb-5
 OpenBabel03242009303D

 44 45  0  0  0  0  0  0  0  0999 V2000
    9.4407   -1.7009   26.6546 C   0  0  0  0  0  0  0  0  0  0  0  0
    9.9421   -0.8632   25.6517 C   0  0  0  0  0  0  0  0  0  0  0  0
    9.6424   -3.0786   26.6000 C   0  0  0  0  0  0  0  0  0  0  0  0
   11.8399   -1.9502   22.7230 C   0  0  0  0  0  0  0  0  0  0  0  0
   10.6582   -1.4289   24.5781 C   0  0  0  0  0  0  0  0  0  0  0  0
   10.3494   -3.6623   25.5449 C   0  0  0  0  0  0  0  0  0  0  0  0
   11.2912   -0.8981   23.4194 C   0  0  0  0  0  0  0  0  0  0  0  0
   10.8449   -2.8126   24.5495 C   0  0  0  0  0  0  0  0  0  0  0  0
    6.3193   -6.3590   23.4150 C   0  0  0  0  0  0  0  0  0  0  0  0
    7.5168    0.5832   20.0117 C   0  0  0  0  0  0  0  0  0  0  0  0
   10.5472   -5.1413   25.5176 C   0  0  0  0  0  0  0  0  0  0  0  0
   11.3531    0.5240   23.0254 C   0  0  0  0  0  0  0  0  0  0  0  0
    9.2963   -5.9184   25.0907 C   0  0  0  0  0  0  0  0  0  0  0  0
   10.3888    0.9021   21.8864 C   0  0  0  0  0  0  0  0  0  0  0  0
   11.5653   -3.1008   23.4123 N   0  0  0  0  0  0  0  0  0  0  0  0
    8.8649   -5.5734   23.7627 N   0  0  0  0  0  0  0  0  0  0  0  0
    9.0141    0.6708   22.2407 N   0  0  0  0  0  0  0  0  0  0  0  0
    7.2760   -4.2438   22.2063 O   0  0  0  0  0  0  0  0  0  0  0  0
    6.8943   -4.1610   24.6971 O   0  0  0  0  0  0  0  0  0  0  0  0
    6.9014   -0.8255   22.1300 O   0  0  0  0  0  0  0  0  0  0  0  0
    8.9272   -1.4738   20.7764 O   0  0  0  0  0  0  0  0  0  0  0  0
    7.3053   -4.8821   23.5077 S   0  0  0  0  0  0  0  0  0  0  0  0
    8.0640   -0.4571   21.3460 S   0  0  0  0  0  0  0  0  0  0  0  0
    8.8870   -1.2701   27.4848 H   0  0  0  0  0  0  0  0  0  0  0  0
    9.7761    0.2087   25.7095 H   0  0  0  0  0  0  0  0  0  0  0  0
    9.2391   -3.7029   27.3943 H   0  0  0  0  0  0  0  0  0  0  0  0
   12.4008   -1.9850   21.7993 H   0  0  0  0  0  0  0  0  0  0  0  0
    5.2801   -6.0695   23.2512 H   0  0  0  0  0  0  0  0  0  0  0  0
    6.6833   -6.9643   22.5835 H   0  0  0  0  0  0  0  0  0  0  0  0
    6.4216   -6.9008   24.3564 H   0  0  0  0  0  0  0  0  0  0  0  0
    6.8884   -0.0115   19.3468 H   0  0  0  0  0  0  0  0  0  0  0  0
    6.9486    1.4137   20.4333 H   0  0  0  0  0  0  0  0  0  0  0  0
    8.3953    0.9515   19.4798 H   0  0  0  0  0  0  0  0  0  0  0  0
   10.8498   -5.4872   26.5201 H   0  0  0  0  0  0  0  0  0  0  0  0
   11.3872   -5.4079   24.8540 H   0  0  0  0  0  0  0  0  0  0  0  0
   12.3800    0.7841   22.7009 H   0  0  0  0  0  0  0  0  0  0  0  0
   11.1583    1.1905   23.8897 H   0  0  0  0  0  0  0  0  0  0  0  0
    9.4963   -6.9946   25.0880 H   0  0  0  0  0  0  0  0  0  0  0  0
    8.4588   -5.7286   25.7700 H   0  0  0  0  0  0  0  0  0  0  0  0
   10.4756    1.9639   21.6350 H   0  0  0  0  0  0  0  0  0  0  0  0
   10.5999    0.3193   20.9838 H   0  0  0  0  0  0  0  0  0  0  0  0
   11.8510   -4.0272   23.1268 H   0  0  0  0  0  0  0  0  0  0  0  0
    9.1868   -6.2106   23.0021 H   0  0  0  0  0  0  0  0  0  0  0  0
    8.4889    1.5038   22.5851 H   0  0  0  0  0  0  0  0  0  0  0  0
  1  2  2  0  0  0  0
  1  3  1  0  0  0  0
  1 24  1  0  0  0  0
  2  5  1  0  0  0  0
  2 25  1  0  0  0  0
  3  6  2  0  0  0  0
  3 26  1  0  0  0  0
  4  7  2  0  0  0  0
  4 15  1  0  0  0  0
  4 27  1  0  0  0  0
  5  7  1  0  0  0  0
  5  8  2  0  0  0  0
  6  8  1  0  0  0  0
  6 11  1  0  0  0  0
  7 12  1  0  0  0  0
  8 15  1  0  0  0  0
  9 22  1  0  0  0  0
  9 28  1  0  0  0  0
  9 29  1  0  0  0  0
  9 30  1  0  0  0  0
 10 23  1  0  0  0  0
 10 31  1  0  0  0  0
 10 32  1  0  0  0  0
 10 33  1  0  0  0  0
 11 13  1  0  0  0  0
 11 34  1  0  0  0  0
 11 35  1  0  0  0  0
 12 14  1  0  0  0  0
 12 36  1  0  0  0  0
 12 37  1  0  0  0  0
 13 16  1  0  0  0  0
 13 38  1  0  0  0  0
 13 39  1  0  0  0  0
 14 17  1  0  0  0  0
 14 40  1  0  0  0  0
 14 41  1  0  0  0  0
 15 42  1  0  0  0  0
 16 22  1  0  0  0  0
 16 43  1  0  0  0  0
 17 23  1  0  0  0  0
 17 44  1  0  0  0  0
 18 22  2  0  0  0  0
 19 22  2  0  0  0  0
 20 23  2  0  0  0  0
 21 23  2  0  0  0  0
M  END
>  <Chemgauss4 Score>
-5.96837282180786

>  <Number of Confs>
200

$$$$
