HEI-REL-0c9-4
 OpenBabel03242009303D

 44 46  0  0  0  0  0  0  0  0999 V2000
   11.1108   -4.0693   24.7310 C   0  0  0  0  0  0  0  0  0  0  0  0
   10.3508   -4.7731   25.6607 C   0  0  0  0  0  0  0  0  0  0  0  0
    8.6318   -3.0870   25.5000 C   0  0  0  0  0  0  0  0  0  0  0  0
   10.8713   -0.9570   22.7219 C   0  0  0  0  0  0  0  0  0  0  0  0
   10.6298   -2.8683   24.1825 C   0  0  0  0  0  0  0  0  0  0  0  0
    9.3707   -2.3627   24.5686 C   0  0  0  0  0  0  0  0  0  0  0  0
    9.1098   -4.2811   26.0455 C   0  0  0  0  0  0  0  0  0  0  0  0
   11.3740   -2.1396   23.2449 C   0  0  0  0  0  0  0  0  0  0  0  0
    9.6301   -0.5421   23.1603 C   0  0  0  0  0  0  0  0  0  0  0  0
    6.1117    1.3390   17.9595 C   0  0  0  0  0  0  0  0  0  0  0  0
    5.9973    1.3931   20.4973 C   0  0  0  0  0  0  0  0  0  0  0  0
    7.4578   -0.2131   19.3348 C   0  0  0  0  0  0  0  0  0  0  0  0
    7.1276    1.6596   21.4930 C   0  0  0  0  0  0  0  0  0  0  0  0
    8.5613    0.0885   20.3482 C   0  0  0  0  0  0  0  0  0  0  0  0
    5.0401    2.3994   17.9285 C   0  0  0  0  0  0  0  0  0  0  0  0
    9.0450    0.7308   22.6205 C   0  0  0  0  0  0  0  0  0  0  0  0
    8.8803   -1.2153   24.0628 N   0  0  0  0  0  0  0  0  0  0  0  0
    6.5235    0.9056   19.2189 N   0  0  0  0  0  0  0  0  0  0  0  0
    7.9862    0.4758   21.6446 N   0  0  0  0  0  0  0  0  0  0  0  0
    6.7724   -4.1458   27.3195 N   0  0  0  0  0  0  0  0  0  0  0  0
    6.5705    0.9128   16.8966 O   0  0  0  0  0  0  0  0  0  0  0  0
    7.7548   -6.4260   26.6257 O   0  0  0  0  0  0  0  0  0  0  0  0
    8.8432   -5.1314   28.4930 O   0  0  0  0  0  0  0  0  0  0  0  0
    8.1484   -5.1532   27.2134 S   0  0  0  0  0  0  0  0  0  0  0  0
   12.9348   -2.6364   22.6767 Cl  0  0  0  0  0  0  0  0  0  0  0  0
   12.0758   -4.4860   24.4563 H   0  0  0  0  0  0  0  0  0  0  0  0
   10.7362   -5.7000   26.0765 H   0  0  0  0  0  0  0  0  0  0  0  0
    7.6565   -2.7141   25.8100 H   0  0  0  0  0  0  0  0  0  0  0  0
   11.4256   -0.3751   21.9921 H   0  0  0  0  0  0  0  0  0  0  0  0
    5.3227    0.6180   20.8817 H   0  0  0  0  0  0  0  0  0  0  0  0
    5.4066    2.3027   20.3725 H   0  0  0  0  0  0  0  0  0  0  0  0
    7.9030   -0.4485   18.3626 H   0  0  0  0  0  0  0  0  0  0  0  0
    6.8762   -1.0890   19.6478 H   0  0  0  0  0  0  0  0  0  0  0  0
    7.7111    2.5293   21.1626 H   0  0  0  0  0  0  0  0  0  0  0  0
    6.6784    1.9162   22.4601 H   0  0  0  0  0  0  0  0  0  0  0  0
    9.1710   -0.8151   20.4694 H   0  0  0  0  0  0  0  0  0  0  0  0
    9.2182    0.8764   19.9562 H   0  0  0  0  0  0  0  0  0  0  0  0
    5.5088    3.3779   17.9364 H   0  0  0  0  0  0  0  0  0  0  0  0
    4.4029    2.2863   18.7998 H   0  0  0  0  0  0  0  0  0  0  0  0
    4.4475    2.2791   17.0274 H   0  0  0  0  0  0  0  0  0  0  0  0
    8.6195    1.3339   23.4300 H   0  0  0  0  0  0  0  0  0  0  0  0
    9.8124    1.3393   22.1305 H   0  0  0  0  0  0  0  0  0  0  0  0
    6.8733   -3.2407   27.7949 H   0  0  0  0  0  0  0  0  0  0  0  0
    6.1273   -4.1253   26.5203 H   0  0  0  0  0  0  0  0  0  0  0  0
  1  2  2  0  0  0  0
  1  5  1  0  0  0  0
  1 26  1  0  0  0  0
  2  7  1  0  0  0  0
  2 27  1  0  0  0  0
  3  6  1  0  0  0  0
  3  7  2  0  0  0  0
  3 28  1  0  0  0  0
  4  8  2  0  0  0  0
  4  9  1  0  0  0  0
  4 29  1  0  0  0  0
  5  6  2  0  0  0  0
  5  8  1  0  0  0  0
  6 17  1  0  0  0  0
  7 24  1  0  0  0  0
  8 25  1  0  0  0  0
  9 16  1  0  0  0  0
  9 17  2  0  0  0  0
 10 15  1  0  0  0  0
 10 18  1  0  0  0  0
 10 21  2  0  0  0  0
 11 13  1  0  0  0  0
 11 18  1  0  0  0  0
 11 30  1  0  0  0  0
 11 31  1  0  0  0  0
 12 14  1  0  0  0  0
 12 18  1  0  0  0  0
 12 32  1  0  0  0  0
 12 33  1  0  0  0  0
 13 19  1  0  0  0  0
 13 34  1  0  0  0  0
 13 35  1  0  0  0  0
 14 19  1  0  0  0  0
 14 36  1  0  0  0  0
 14 37  1  0  0  0  0
 15 38  1  0  0  0  0
 15 39  1  0  0  0  0
 15 40  1  0  0  0  0
 16 19  1  0  0  0  0
 16 41  1  0  0  0  0
 16 42  1  0  0  0  0
 20 24  1  0  0  0  0
 20 43  1  0  0  0  0
 20 44  1  0  0  0  0
 22 24  2  0  0  0  0
 23 24  2  0  0  0  0
M  END
>  <Chemgauss4 Score>
-5.36999607086182

>  <Number of Confs>
143

$$$$
