DAR-DIA-842-23
 OpenBabel03242009303D

 32 34  0  0  0  0  0  0  0  0999 V2000
   11.6941    0.2947   22.8511 C   0  0  0  0  0  0  0  0  0  0  0  0
   11.1413    0.0099   24.0984 C   0  0  0  0  0  0  0  0  0  0  0  0
   10.4731   -2.0437   25.5756 C   0  0  0  0  0  0  0  0  0  0  0  0
   12.0515   -0.7603   22.0224 C   0  0  0  0  0  0  0  0  0  0  0  0
    5.6883   -3.1037   24.7419 C   0  0  0  0  0  0  0  0  0  0  0  0
    5.7706   -5.2397   25.2574 C   0  0  0  0  0  0  0  0  0  0  0  0
   10.9756   -1.3396   24.4495 C   0  0  0  0  0  0  0  0  0  0  0  0
    6.5607   -4.1191   25.1776 C   0  0  0  0  0  0  0  0  0  0  0  0
   10.5811   -3.3911   25.3064 C   0  0  0  0  0  0  0  0  0  0  0  0
   11.3774   -2.2966   23.5221 C   0  0  0  0  0  0  0  0  0  0  0  0
    8.7793   -5.0639   25.9054 C   0  0  0  0  0  0  0  0  0  0  0  0
    3.3447   -5.6750   24.8053 C   0  0  0  0  0  0  0  0  0  0  0  0
   10.2139   -4.5663   26.1188 C   0  0  0  0  0  0  0  0  0  0  0  0
   11.9153   -2.0762   22.3076 N   0  0  0  0  0  0  0  0  0  0  0  0
    4.4396   -3.5407   24.5577 N   0  0  0  0  0  0  0  0  0  0  0  0
   11.1310   -3.5329   24.0588 N   0  0  0  0  0  0  0  0  0  0  0  0
    4.5217   -4.8430   24.8791 N   0  0  0  0  0  0  0  0  0  0  0  0
    7.9418   -4.0378   25.4753 N   0  0  0  0  0  0  0  0  0  0  0  0
    8.4753   -6.2349   26.1091 O   0  0  0  0  0  0  0  0  0  0  0  0
   11.8420    1.3219   22.5358 H   0  0  0  0  0  0  0  0  0  0  0  0
   10.8520    0.8105   24.7717 H   0  0  0  0  0  0  0  0  0  0  0  0
   10.0761   -1.6135   26.4852 H   0  0  0  0  0  0  0  0  0  0  0  0
   12.4842   -0.5564   21.0464 H   0  0  0  0  0  0  0  0  0  0  0  0
    5.9076   -2.0628   24.5508 H   0  0  0  0  0  0  0  0  0  0  0  0
    5.9845   -6.2608   25.5437 H   0  0  0  0  0  0  0  0  0  0  0  0
    2.8439   -5.6377   25.7763 H   0  0  0  0  0  0  0  0  0  0  0  0
    2.6830   -5.3008   24.0193 H   0  0  0  0  0  0  0  0  0  0  0  0
    3.6412   -6.7000   24.5659 H   0  0  0  0  0  0  0  0  0  0  0  0
   10.8909   -5.4199   25.9153 H   0  0  0  0  0  0  0  0  0  0  0  0
   10.3322   -4.3554   27.2003 H   0  0  0  0  0  0  0  0  0  0  0  0
   11.3262   -4.4127   23.6011 H   0  0  0  0  0  0  0  0  0  0  0  0
    8.3733   -3.1228   25.3618 H   0  0  0  0  0  0  0  0  0  0  0  0
  1  2  2  0  0  0  0
  1  4  1  0  0  0  0
  1 20  1  0  0  0  0
  2  7  1  0  0  0  0
  2 21  1  0  0  0  0
  3  7  1  0  0  0  0
  3  9  2  0  0  0  0
  3 22  1  0  0  0  0
  4 14  2  0  0  0  0
  4 23  1  0  0  0  0
  5  8  1  0  0  0  0
  5 15  2  0  0  0  0
  5 24  1  0  0  0  0
  6  8  2  0  0  0  0
  6 17  1  0  0  0  0
  6 25  1  0  0  0  0
  7 10  2  0  0  0  0
  8 18  1  0  0  0  0
  9 13  1  0  0  0  0
  9 16  1  0  0  0  0
 10 14  1  0  0  0  0
 10 16  1  0  0  0  0
 11 13  1  0  0  0  0
 11 18  1  0  0  0  0
 11 19  2  0  0  0  0
 12 17  1  0  0  0  0
 12 26  1  0  0  0  0
 12 27  1  0  0  0  0
 12 28  1  0  0  0  0
 13 29  1  0  0  0  0
 13 30  1  0  0  0  0
 15 17  1  0  0  0  0
 16 31  1  0  0  0  0
 18 32  1  0  0  0  0
M  END
>  <Chemgauss4 Score>
-5.81948137283325

>  <Number of Confs>
68

$$$$
