CHR-SOS-6c4-4
 OpenBabel03242009303D

 44 46  0  0  0  0  0  0  0  0999 V2000
   10.1647   -3.3187   24.6043 C   0  0  0  0  0  0  0  0  0  0  0  0
   10.7935   -2.6392   23.8391 C   0  0  0  0  0  0  0  0  0  0  0  0
    8.3182   -6.1461   26.1288 C   0  0  0  0  0  0  0  0  0  0  0  0
    7.9924   -5.5635   27.3485 C   0  0  0  0  0  0  0  0  0  0  0  0
    9.0442   -5.4212   25.1902 C   0  0  0  0  0  0  0  0  0  0  0  0
    6.0863    0.7303   18.6790 C   0  0  0  0  0  0  0  0  0  0  0  0
    8.4128   -4.2635   27.5791 C   0  0  0  0  0  0  0  0  0  0  0  0
    5.3819    1.2687   19.7438 C   0  0  0  0  0  0  0  0  0  0  0  0
    6.9639    0.5738   21.2578 C   0  0  0  0  0  0  0  0  0  0  0  0
    9.4173   -4.1275   25.5174 C   0  0  0  0  0  0  0  0  0  0  0  0
    7.2882    0.0868   18.9526 C   0  0  0  0  0  0  0  0  0  0  0  0
    7.7424    0.0026   20.2641 C   0  0  0  0  0  0  0  0  0  0  0  0
    9.5304   -0.7982   21.8586 C   0  0  0  0  0  0  0  0  0  0  0  0
   13.2632   -0.0937   22.7081 C   0  0  0  0  0  0  0  0  0  0  0  0
   13.7658   -1.3533   22.0032 C   0  0  0  0  0  0  0  0  0  0  0  0
   12.0838   -0.5338   23.5737 C   0  0  0  0  0  0  0  0  0  0  0  0
   12.8631   -2.4925   22.4740 C   0  0  0  0  0  0  0  0  0  0  0  0
   11.5625   -1.8088   22.9049 C   0  0  0  0  0  0  0  0  0  0  0  0
    8.0679   -0.5032   17.8237 C   0  0  0  0  0  0  0  0  0  0  0  0
    5.7912    1.2068   21.0307 N   0  0  0  0  0  0  0  0  0  0  0  0
    9.1194   -3.5279   26.6919 N   0  0  0  0  0  0  0  0  0  0  0  0
    8.9582   -0.6410   20.5931 N   0  0  0  0  0  0  0  0  0  0  0  0
   10.7380   -1.4935   21.7585 N   0  0  0  0  0  0  0  0  0  0  0  0
    9.0700   -0.3986   22.9254 O   0  0  0  0  0  0  0  0  0  0  0  0
    8.0066   -7.1630   25.9099 H   0  0  0  0  0  0  0  0  0  0  0  0
    7.4273   -6.1097   28.0950 H   0  0  0  0  0  0  0  0  0  0  0  0
    9.3028   -5.8674   24.2353 H   0  0  0  0  0  0  0  0  0  0  0  0
    5.7041    0.8129   17.6673 H   0  0  0  0  0  0  0  0  0  0  0  0
    8.1841   -3.7638   28.5147 H   0  0  0  0  0  0  0  0  0  0  0  0
    4.4387    1.7806   19.5836 H   0  0  0  0  0  0  0  0  0  0  0  0
    7.2654    0.5411   22.3007 H   0  0  0  0  0  0  0  0  0  0  0  0
   14.0465    0.3741   23.3132 H   0  0  0  0  0  0  0  0  0  0  0  0
   12.9385    0.6442   21.9654 H   0  0  0  0  0  0  0  0  0  0  0  0
   13.6911   -1.2281   20.9169 H   0  0  0  0  0  0  0  0  0  0  0  0
   14.8158   -1.5575   22.2363 H   0  0  0  0  0  0  0  0  0  0  0  0
   12.4425   -0.7455   24.5902 H   0  0  0  0  0  0  0  0  0  0  0  0
   11.3231    0.2500   23.6635 H   0  0  0  0  0  0  0  0  0  0  0  0
   12.7161   -3.2501   21.6959 H   0  0  0  0  0  0  0  0  0  0  0  0
   13.3379   -2.9999   23.3248 H   0  0  0  0  0  0  0  0  0  0  0  0
    8.7690    0.2359   17.4191 H   0  0  0  0  0  0  0  0  0  0  0  0
    8.6368   -1.3819   18.1516 H   0  0  0  0  0  0  0  0  0  0  0  0
    7.4049   -0.8356   17.0153 H   0  0  0  0  0  0  0  0  0  0  0  0
    9.4745   -1.0360   19.8111 H   0  0  0  0  0  0  0  0  0  0  0  0
   11.0508   -1.7905   20.8411 H   0  0  0  0  0  0  0  0  0  0  0  0
  1  2  3  0  0  0  0
  1 10  1  0  0  0  0
  2 18  1  0  0  0  0
  3  4  1  0  0  0  0
  3  5  2  0  0  0  0
  3 25  1  0  0  0  0
  4  7  2  0  0  0  0
  4 26  1  0  0  0  0
  5 10  1  0  0  0  0
  5 27  1  0  0  0  0
  6  8  2  0  0  0  0
  6 11  1  0  0  0  0
  6 28  1  0  0  0  0
  7 21  1  0  0  0  0
  7 29  1  0  0  0  0
  8 20  1  0  0  0  0
  8 30  1  0  0  0  0
  9 12  1  0  0  0  0
  9 20  2  0  0  0  0
  9 31  1  0  0  0  0
 10 21  2  0  0  0  0
 11 12  2  0  0  0  0
 11 19  1  0  0  0  0
 12 22  1  0  0  0  0
 13 22  1  0  0  0  0
 13 23  1  0  0  0  0
 13 24  2  0  0  0  0
 14 15  1  0  0  0  0
 14 16  1  0  0  0  0
 14 32  1  0  0  0  0
 14 33  1  0  0  0  0
 15 17  1  0  0  0  0
 15 34  1  0  0  0  0
 15 35  1  0  0  0  0
 16 18  1  0  0  0  0
 16 36  1  0  0  0  0
 16 37  1  0  0  0  0
 17 18  1  0  0  0  0
 17 38  1  0  0  0  0
 17 39  1  0  0  0  0
 18 23  1  0  0  0  0
 19 40  1  0  0  0  0
 19 41  1  0  0  0  0
 19 42  1  0  0  0  0
 22 43  1  0  0  0  0
 23 44  1  0  0  0  0
M  END
>  <Chemgauss4 Score>
-7.40942811965942

>  <Number of Confs>
7

$$$$
