ADA-UNI-f8e-12
 OpenBabel03242009303D

 40 42  0  0  1  0  0  0  0  0999 V2000
   12.1295   -1.1659   22.3795 C   0  0  0  0  0  0  0  0  0  0  0  0
    8.8353   -6.3449   28.4176 C   0  0  0  0  0  0  0  0  0  0  0  0
   10.9734   -1.9401   22.4767 C   0  0  0  0  0  0  0  0  0  0  0  0
    8.9382   -5.6206   27.2352 C   0  0  0  0  0  0  0  0  0  0  0  0
   12.5995   -0.4712   23.4942 C   0  0  0  0  0  0  0  0  0  0  0  0
   10.7569   -1.3249   24.8030 C   0  0  0  0  0  0  0  0  0  0  0  0
    8.3604   -5.6879   29.5413 C   0  0  0  0  0  0  0  0  0  0  0  0
    8.1053   -3.7159   28.3905 C   0  0  0  0  0  0  0  0  0  0  0  0
   10.2870   -2.0196   23.6884 C   0  0  0  0  0  0  0  0  0  0  0  0
    8.5684   -4.2804   27.2129 C   0  0  0  0  0  0  0  0  0  0  0  0
   11.9132   -0.5507   24.7059 C   0  0  0  0  0  0  0  0  0  0  0  0
    9.1034   -3.9441   24.7788 C   0  0  0  0  0  0  0  0  0  0  0  0
    8.2639   -3.0996   22.5111 C   0  0  0  0  0  0  0  0  0  0  0  0
    7.7166   -2.1505   23.5315 C   0  0  2  0  0  0  0  0  0  0  0  0
    9.0520   -2.8468   23.7917 C   0  0  2  0  0  0  0  0  0  0  0  0
    5.8804   -0.3827   25.2430 C   0  0  0  0  0  0  0  0  0  0  0  0
    6.4774   -2.5004   24.2839 C   0  0  0  0  0  0  0  0  0  0  0  0
    7.9914   -4.3875   29.5583 N   0  0  0  0  0  0  0  0  0  0  0  0
    8.6622   -3.5173   26.0249 N   0  0  0  0  0  0  0  0  0  0  0  0
    6.3748   -1.7371   25.4966 N   0  0  0  0  0  0  0  0  0  0  0  0
    9.4954   -5.0610   24.4566 O   0  0  0  0  0  0  0  0  0  0  0  0
   12.4935    0.3066   26.0807 Cl  0  0  0  0  0  0  0  0  0  0  0  0
   12.6639   -1.1040   21.4360 H   0  0  0  0  0  0  0  0  0  0  0  0
    9.1178   -7.3906   28.4581 H   0  0  0  0  0  0  0  0  0  0  0  0
   10.6154   -2.4776   21.6025 H   0  0  0  0  0  0  0  0  0  0  0  0
    9.3075   -6.1098   26.3377 H   0  0  0  0  0  0  0  0  0  0  0  0
   13.5018    0.1280   23.4036 H   0  0  0  0  0  0  0  0  0  0  0  0
   10.2185   -1.3898   25.7460 H   0  0  0  0  0  0  0  0  0  0  0  0
    8.2622   -6.2084   30.4882 H   0  0  0  0  0  0  0  0  0  0  0  0
    7.8014   -2.6743   28.4359 H   0  0  0  0  0  0  0  0  0  0  0  0
    7.7794   -4.0617   22.3864 H   0  0  0  0  0  0  0  0  0  0  0  0
    8.6316   -2.6788   21.5815 H   0  0  0  0  0  0  0  0  0  0  0  0
    7.7363   -1.0930   23.2886 H   0  0  0  0  0  0  0  0  0  0  0  0
    6.5550    0.1289   24.5407 H   0  0  0  0  0  0  0  0  0  0  0  0
    4.8712   -0.4362   24.8088 H   0  0  0  0  0  0  0  0  0  0  0  0
    5.8433    0.1770   26.1892 H   0  0  0  0  0  0  0  0  0  0  0  0
    5.6025   -2.2897   23.6515 H   0  0  0  0  0  0  0  0  0  0  0  0
    6.5002   -3.5712   24.5340 H   0  0  0  0  0  0  0  0  0  0  0  0
    8.3689   -2.5460   26.1064 H   0  0  0  0  0  0  0  0  0  0  0  0
    5.7329   -2.1964   26.1527 H   0  0  0  0  0  0  0  0  0  0  0  0
  1  3  2  0  0  0  0
  1  5  1  0  0  0  0
  1 23  1  0  0  0  0
  2  4  2  0  0  0  0
  2  7  1  0  0  0  0
  2 24  1  0  0  0  0
  3  9  1  0  0  0  0
  3 25  1  0  0  0  0
  4 10  1  0  0  0  0
  4 26  1  0  0  0  0
  5 11  2  0  0  0  0
  5 27  1  0  0  0  0
  6  9  2  0  0  0  0
  6 11  1  0  0  0  0
  6 28  1  0  0  0  0
  7 18  2  0  0  0  0
  7 29  1  0  0  0  0
  8 10  2  0  0  0  0
  8 18  1  0  0  0  0
  8 30  1  0  0  0  0
  9 15  1  0  0  0  0
 10 19  1  0  0  0  0
 11 22  1  0  0  0  0
 12 19  1  0  0  0  0
 12 21  2  0  0  0  0
 13 14  1  0  0  0  0
 13 15  1  0  0  0  0
 13 31  1  0  0  0  0
 13 32  1  0  0  0  0
 14 15  1  0  0  0  0
 14 17  1  0  0  0  0
 14 33  1  6  0  0  0
 15 12  1  1  0  0  0
 16 20  1  0  0  0  0
 16 34  1  0  0  0  0
 16 35  1  0  0  0  0
 16 36  1  0  0  0  0
 17 20  1  0  0  0  0
 17 37  1  0  0  0  0
 17 38  1  0  0  0  0
 19 39  1  0  0  0  0
 20 40  1  0  0  0  0
M  END
>  <Chemgauss4 Score>
-4.58408355712891

>  <Number of Confs>
130

$$$$
