SAL-INS-cba-4
 OpenBabel03242009303D

 60 64  0  0  0  0  0  0  0  0999 V2000
    9.0011   -4.2456   28.8476 C   0  0  0  0  0  0  0  0  0  0  0  0
    4.6867   -7.2624   26.7117 C   0  0  0  0  0  0  0  0  0  0  0  0
    9.4936    1.6715   22.7682 C   0  0  0  0  0  0  0  0  0  0  0  0
    4.1381   -6.0253   26.9544 C   0  0  0  0  0  0  0  0  0  0  0  0
    8.6623    1.1337   20.8840 C   0  0  0  0  0  0  0  0  0  0  0  0
    9.3791   -4.1666   25.3023 C   0  0  0  0  0  0  0  0  0  0  0  0
    9.0647   -4.6019   26.6162 C   0  0  0  0  0  0  0  0  0  0  0  0
    9.3618   -3.6895   27.5867 C   0  0  0  0  0  0  0  0  0  0  0  0
    8.4923   -5.4947   28.5656 C   0  0  0  0  0  0  0  0  0  0  0  0
   10.1720    0.5416   22.3763 C   0  0  0  0  0  0  0  0  0  0  0  0
    9.9178   -2.8984   25.3472 C   0  0  0  0  0  0  0  0  0  0  0  0
    5.6063   -6.5739   28.5036 C   0  0  0  0  0  0  0  0  0  0  0  0
   10.9137   -0.7888   24.3969 C   0  0  0  0  0  0  0  0  0  0  0  0
    7.4650   -6.6457   23.1067 C   0  0  0  0  0  0  0  0  0  0  0  0
    6.8612   -4.2035   23.3675 C   0  0  0  0  0  0  0  0  0  0  0  0
    5.9908   -6.9856   22.9090 C   0  0  0  0  0  0  0  0  0  0  0  0
    5.3887   -4.5504   23.1694 C   0  0  0  0  0  0  0  0  0  0  0  0
    7.6449   -5.3828   23.9606 C   0  0  2  0  0  0  0  0  0  0  0  0
    5.2144   -5.8083   22.3226 C   0  0  2  0  0  0  0  0  0  0  0  0
    9.1251   -5.0316   24.0986 C   0  0  0  0  0  0  0  0  0  0  0  0
   11.2764   -0.2549   23.0201 C   0  0  0  0  0  0  0  0  0  0  0  0
    7.9608   -6.5260   29.4793 C   0  0  0  0  0  0  0  0  0  0  0  0
    6.4410   -6.4217   29.7518 C   0  0  0  0  0  0  0  0  0  0  0  0
    8.5550    2.0347   21.8351 N   0  0  0  0  0  0  0  0  0  0  0  0
    5.5997   -7.5983   27.6798 N   0  0  0  0  0  0  0  0  0  0  0  0
    4.7365   -5.5969   28.1058 N   0  0  0  0  0  0  0  0  0  0  0  0
    9.6282    0.2086   21.1678 N   0  0  0  0  0  0  0  0  0  0  0  0
    8.5288   -5.7153   27.2149 N   0  0  0  0  0  0  0  0  0  0  0  0
   10.3606   -2.0958   24.3293 N   0  0  0  0  0  0  0  0  0  0  0  0
   11.0914   -0.1366   25.4207 O   0  0  0  0  0  0  0  0  0  0  0  0
    3.8289   -6.1295   22.2654 O   0  0  0  0  0  0  0  0  0  0  0  0
   10.0469   -2.2389   26.9324 S   0  0  0  0  0  0  0  0  0  0  0  0
    9.1011   -3.7921   29.8238 H   0  0  0  0  0  0  0  0  0  0  0  0
    4.4697   -7.9289   25.8900 H   0  0  0  0  0  0  0  0  0  0  0  0
    9.6314    2.2438   23.6746 H   0  0  0  0  0  0  0  0  0  0  0  0
    3.4030   -5.4303   26.4324 H   0  0  0  0  0  0  0  0  0  0  0  0
    8.0785    1.0940   19.9754 H   0  0  0  0  0  0  0  0  0  0  0  0
    7.9712   -7.4941   23.5823 H   0  0  0  0  0  0  0  0  0  0  0  0
    7.9371   -6.5042   22.1260 H   0  0  0  0  0  0  0  0  0  0  0  0
    7.2966   -3.9132   22.4027 H   0  0  0  0  0  0  0  0  0  0  0  0
    6.9421   -3.3316   24.0274 H   0  0  0  0  0  0  0  0  0  0  0  0
    5.8911   -7.8584   22.2525 H   0  0  0  0  0  0  0  0  0  0  0  0
    5.5450   -7.2838   23.8672 H   0  0  0  0  0  0  0  0  0  0  0  0
    4.9033   -4.6900   24.1441 H   0  0  0  0  0  0  0  0  0  0  0  0
    4.8668   -3.7094   22.6971 H   0  0  0  0  0  0  0  0  0  0  0  0
    7.2517   -5.5873   24.9657 H   0  0  0  0  0  0  0  0  0  0  0  0
    5.5550   -5.6136   21.2986 H   0  0  0  0  0  0  0  0  0  0  0  0
    9.4636   -4.5198   23.1922 H   0  0  0  0  0  0  0  0  0  0  0  0
    9.7125   -5.9526   24.1694 H   0  0  0  0  0  0  0  0  0  0  0  0
   11.5448   -1.1009   22.3745 H   0  0  0  0  0  0  0  0  0  0  0  0
   12.1750    0.3688   23.1089 H   0  0  0  0  0  0  0  0  0  0  0  0
    8.1566   -7.5343   29.0625 H   0  0  0  0  0  0  0  0  0  0  0  0
    8.4993   -6.5246   30.4487 H   0  0  0  0  0  0  0  0  0  0  0  0
    6.2052   -5.4505   30.2061 H   0  0  0  0  0  0  0  0  0  0  0  0
    6.1432   -7.1744   30.4929 H   0  0  0  0  0  0  0  0  0  0  0  0
    4.5681   -4.7167   28.5748 H   0  0  0  0  0  0  0  0  0  0  0  0
    9.8907   -0.5768   20.5867 H   0  0  0  0  0  0  0  0  0  0  0  0
    8.2240   -6.5387   26.7107 H   0  0  0  0  0  0  0  0  0  0  0  0
   10.2811   -2.4985   23.3758 H   0  0  0  0  0  0  0  0  0  0  0  0
    3.7481   -6.9122   21.6977 H   0  0  0  0  0  0  0  0  0  0  0  0
  1  8  1  0  0  0  0
  1  9  2  0  0  0  0
  1 33  1  0  0  0  0
  2  4  2  0  0  0  0
  2 25  1  0  0  0  0
  2 34  1  0  0  0  0
  3 10  2  0  0  0  0
  3 24  1  0  0  0  0
  3 35  1  0  0  0  0
  4 26  1  0  0  0  0
  4 36  1  0  0  0  0
  5 24  2  0  0  0  0
  5 27  1  0  0  0  0
  5 37  1  0  0  0  0
  6  7  1  0  0  0  0
  6 11  2  0  0  0  0
  6 20  1  0  0  0  0
  7  8  2  0  0  0  0
  7 28  1  0  0  0  0
  8 32  1  0  0  0  0
  9 22  1  0  0  0  0
  9 28  1  0  0  0  0
 10 21  1  0  0  0  0
 10 27  1  0  0  0  0
 11 29  1  0  0  0  0
 11 32  1  0  0  0  0
 12 23  1  0  0  0  0
 12 25  2  0  0  0  0
 12 26  1  0  0  0  0
 13 21  1  0  0  0  0
 13 29  1  0  0  0  0
 13 30  2  0  0  0  0
 14 16  1  0  0  0  0
 14 18  1  0  0  0  0
 14 38  1  0  0  0  0
 14 39  1  0  0  0  0
 15 17  1  0  0  0  0
 15 18  1  0  0  0  0
 15 40  1  0  0  0  0
 15 41  1  0  0  0  0
 16 19  1  0  0  0  0
 16 42  1  0  0  0  0
 16 43  1  0  0  0  0
 17 19  1  0  0  0  0
 17 44  1  0  0  0  0
 17 45  1  0  0  0  0
 18 20  1  0  0  0  0
 18 46  1  1  0  0  0
 19 31  1  0  0  0  0
 19 47  1  6  0  0  0
 20 48  1  0  0  0  0
 20 49  1  0  0  0  0
 21 50  1  0  0  0  0
 21 51  1  0  0  0  0
 22 23  1  0  0  0  0
 22 52  1  0  0  0  0
 22 53  1  0  0  0  0
 23 54  1  0  0  0  0
 23 55  1  0  0  0  0
 26 56  1  0  0  0  0
 27 57  1  0  0  0  0
 28 58  1  0  0  0  0
 29 59  1  0  0  0  0
 31 60  1  0  0  0  0
M  END
>  <Chemgauss4 Score>
-5.38513565063477

>  <Number of Confs>
200

$$$$
