HEI-REL-0c9-6
 OpenBabel03242009303D

 53 56  0  0  1  0  0  0  0  0999 V2000
   12.1804   -1.7030   23.3252 C   0  0  0  0  0  0  0  0  0  0  0  0
   11.2499   -1.7872   22.2935 C   0  0  0  0  0  0  0  0  0  0  0  0
   11.9802   -2.4199   24.5043 C   0  0  0  0  0  0  0  0  0  0  0  0
   10.1193   -2.5900   22.4392 C   0  0  0  0  0  0  0  0  0  0  0  0
    5.4847   -2.7998   20.4001 C   0  0  0  0  0  0  0  0  0  0  0  0
    5.6645   -1.6435   19.6502 C   0  0  0  0  0  0  0  0  0  0  0  0
    7.0496   -0.7456   21.4123 C   0  0  0  0  0  0  0  0  0  0  0  0
   10.8456   -3.2295   24.6650 C   0  0  0  0  0  0  0  0  0  0  0  0
    9.9091   -3.3191   23.6197 C   0  0  0  0  0  0  0  0  0  0  0  0
    6.0794   -2.9326   21.6678 C   0  0  0  0  0  0  0  0  0  0  0  0
    6.8955   -1.9055   22.1985 C   0  0  0  0  0  0  0  0  0  0  0  0
    6.4446   -0.6147   20.1582 C   0  0  0  0  0  0  0  0  0  0  0  0
    8.8368   -5.1649   27.2439 C   0  0  0  0  0  0  0  0  0  0  0  0
    5.8557   -4.2178   22.4241 C   0  0  0  0  0  0  0  0  0  0  0  0
   10.6702   -3.9887   25.9573 C   0  0  0  0  0  0  0  0  0  0  0  0
    6.1328   -4.0401   23.9095 C   0  0  0  0  0  0  0  0  0  0  0  0
    8.9183   -5.3040   24.7784 C   0  0  0  0  0  0  0  0  0  0  0  0
    8.6734   -4.1801   23.7653 C   0  0  1  0  0  0  0  0  0  0  0  0
    7.4633   -3.3277   24.1575 C   0  0  1  0  0  0  0  0  0  0  0  0
    9.0275   -4.2333   28.4156 C   0  0  0  0  0  0  0  0  0  0  0  0
    8.0217   -0.8835   24.1630 C   0  0  0  0  0  0  0  0  0  0  0  0
    7.5014   -2.0422   23.4476 N   0  0  0  0  0  0  0  0  0  0  0  0
    9.4353   -4.7791   26.0419 N   0  0  0  0  0  0  0  0  0  0  0  0
    8.0773    0.4409   18.3348 N   0  0  0  0  0  0  0  0  0  0  0  0
    8.1739   -6.1945   27.3908 O   0  0  0  0  0  0  0  0  0  0  0  0
    5.5573    0.9834   18.3056 O   0  0  0  0  0  0  0  0  0  0  0  0
    7.0010    1.9298   20.1408 O   0  0  0  0  0  0  0  0  0  0  0  0
    6.6767    0.8442   19.2262 S   0  0  0  0  0  0  0  0  0  0  0  0
   13.0619   -1.0785   23.2133 H   0  0  0  0  0  0  0  0  0  0  0  0
   11.4040   -1.2283   21.3752 H   0  0  0  0  0  0  0  0  0  0  0  0
   12.7151   -2.3439   25.3022 H   0  0  0  0  0  0  0  0  0  0  0  0
    9.4005   -2.6456   21.6254 H   0  0  0  0  0  0  0  0  0  0  0  0
    4.8738   -3.6035   19.9957 H   0  0  0  0  0  0  0  0  0  0  0  0
    5.1933   -1.5572   18.6753 H   0  0  0  0  0  0  0  0  0  0  0  0
    7.6579    0.0839   21.7671 H   0  0  0  0  0  0  0  0  0  0  0  0
    4.8196   -4.5541   22.2976 H   0  0  0  0  0  0  0  0  0  0  0  0
    6.5072   -4.9927   22.0034 H   0  0  0  0  0  0  0  0  0  0  0  0
   11.5001   -4.6958   26.0746 H   0  0  0  0  0  0  0  0  0  0  0  0
   10.7046   -3.2766   26.7872 H   0  0  0  0  0  0  0  0  0  0  0  0
    5.3253   -3.4493   24.3632 H   0  0  0  0  0  0  0  0  0  0  0  0
    6.1198   -5.0167   24.4077 H   0  0  0  0  0  0  0  0  0  0  0  0
    8.0008   -5.8805   24.9381 H   0  0  0  0  0  0  0  0  0  0  0  0
    9.6724   -6.0052   24.3974 H   0  0  0  0  0  0  0  0  0  0  0  0
    8.4626   -4.6551   22.7979 H   0  0  0  0  0  0  0  0  0  0  0  0
    7.5275   -3.1425   25.2378 H   0  0  0  0  0  0  0  0  0  0  0  0
    8.2193   -3.5100   28.4277 H   0  0  0  0  0  0  0  0  0  0  0  0
    9.9802   -3.7245   28.3124 H   0  0  0  0  0  0  0  0  0  0  0  0
    9.0219   -4.8125   29.3329 H   0  0  0  0  0  0  0  0  0  0  0  0
    8.4555   -1.2075   25.1206 H   0  0  0  0  0  0  0  0  0  0  0  0
    8.7982   -0.3958   23.5553 H   0  0  0  0  0  0  0  0  0  0  0  0
    7.2042   -0.1724   24.3529 H   0  0  0  0  0  0  0  0  0  0  0  0
    7.9730    0.2615   17.3287 H   0  0  0  0  0  0  0  0  0  0  0  0
    8.9581    0.9070   18.5843 H   0  0  0  0  0  0  0  0  0  0  0  0
  1  2  1  0  0  0  0
  1  3  2  0  0  0  0
  1 29  1  0  0  0  0
  2  4  2  0  0  0  0
  2 30  1  0  0  0  0
  3  8  1  0  0  0  0
  3 31  1  0  0  0  0
  4  9  1  0  0  0  0
  4 32  1  0  0  0  0
  5  6  2  0  0  0  0
  5 10  1  0  0  0  0
  5 33  1  0  0  0  0
  6 12  1  0  0  0  0
  6 34  1  0  0  0  0
  7 11  1  0  0  0  0
  7 12  2  0  0  0  0
  7 35  1  0  0  0  0
  8  9  2  0  0  0  0
  8 15  1  0  0  0  0
  9 18  1  0  0  0  0
 10 11  2  0  0  0  0
 10 14  1  0  0  0  0
 11 22  1  0  0  0  0
 12 28  1  0  0  0  0
 13 20  1  0  0  0  0
 13 23  1  0  0  0  0
 13 25  2  0  0  0  0
 14 16  1  0  0  0  0
 14 36  1  0  0  0  0
 14 37  1  0  0  0  0
 15 23  1  0  0  0  0
 15 38  1  0  0  0  0
 15 39  1  0  0  0  0
 16 19  1  0  0  0  0
 16 40  1  0  0  0  0
 16 41  1  0  0  0  0
 17 18  1  0  0  0  0
 17 23  1  0  0  0  0
 17 42  1  0  0  0  0
 17 43  1  0  0  0  0
 18 19  1  0  0  0  0
 18 44  1  6  0  0  0
 19 22  1  0  0  0  0
 19 45  1  1  0  0  0
 20 46  1  0  0  0  0
 20 47  1  0  0  0  0
 20 48  1  0  0  0  0
 21 22  1  0  0  0  0
 21 49  1  0  0  0  0
 21 50  1  0  0  0  0
 21 51  1  0  0  0  0
 24 28  1  0  0  0  0
 24 52  1  0  0  0  0
 24 53  1  0  0  0  0
 26 28  2  0  0  0  0
 27 28  2  0  0  0  0
M  END
>  <Chemgauss4 Score>
-4.87787294387817

>  <Number of Confs>
9

$$$$
