JOH-MEM-5e3-5
 OpenBabel03242009303D

 48 51  0  0  1  0  0  0  0  0999 V2000
   10.5718   -2.6309   22.8000 C   0  0  0  0  0  0  0  0  0  0  0  0
   10.6989   -2.9682   24.1509 C   0  0  0  0  0  0  0  0  0  0  0  0
    8.7498   -1.6393   24.7344 C   0  0  0  0  0  0  0  0  0  0  0  0
    8.5985   -1.2833   23.3815 C   0  0  0  0  0  0  0  0  0  0  0  0
    7.6951   -0.4868   22.6574 C   0  0  0  0  0  0  0  0  0  0  0  0
    9.5156   -1.7877   22.4360 C   0  0  0  0  0  0  0  0  0  0  0  0
    9.8045   -2.4820   25.1031 C   0  0  0  0  0  0  0  0  0  0  0  0
    8.0667   -0.5238   21.3473 C   0  0  0  0  0  0  0  0  0  0  0  0
    7.1160   -5.5166   24.7933 C   0  0  0  0  0  0  0  0  0  0  0  0
    7.4517    0.3238   19.1702 C   0  0  0  0  0  0  0  0  0  0  0  0
    6.4948    0.3630   22.8528 C   0  0  0  0  0  0  0  0  0  0  0  0
    6.1948    0.8477   21.3852 C   0  0  0  0  0  0  0  0  0  0  0  0
    7.7196   -4.5798   25.7889 C   0  0  1  0  0  0  0  0  0  0  0  0
    7.0739   -4.7612   27.1610 C   0  0  1  0  0  0  0  0  0  0  0  0
    7.8861   -4.0307   28.2309 C   0  0  2  0  0  0  0  0  0  0  0  0
    9.3666   -4.4067   28.1442 C   0  0  2  0  0  0  0  0  0  0  0  0
    9.8948   -4.2188   26.7221 C   0  0  1  0  0  0  0  0  0  0  0  0
    6.4442    1.1942   18.4615 C   0  0  0  0  0  0  0  0  0  0  0  0
    9.1593   -1.2987   21.1847 N   0  0  0  0  0  0  0  0  0  0  0  0
    7.2557    0.2214   20.5310 N   0  0  0  0  0  0  0  0  0  0  0  0
    7.7187   -6.4067   24.2121 O   0  0  0  0  0  0  0  0  0  0  0  0
    8.3525   -0.2244   18.5342 O   0  0  0  0  0  0  0  0  0  0  0  0
    9.0952   -4.9503   25.7865 O   0  0  0  0  0  0  0  0  0  0  0  0
    5.8000   -5.2445   24.6166 O   0  0  0  0  0  0  0  0  0  0  0  0
    5.7472   -4.2356   27.1371 O   0  0  0  0  0  0  0  0  0  0  0  0
    7.3718   -4.3629   29.5180 O   0  0  0  0  0  0  0  0  0  0  0  0
    9.5422   -5.7795   28.4966 O   0  0  0  0  0  0  0  0  0  0  0  0
    9.9578   -2.8310   26.4120 O   0  0  0  0  0  0  0  0  0  0  0  0
   11.2705   -3.0119   22.0625 H   0  0  0  0  0  0  0  0  0  0  0  0
   11.5126   -3.6222   24.4564 H   0  0  0  0  0  0  0  0  0  0  0  0
    8.0576   -1.2650   25.4838 H   0  0  0  0  0  0  0  0  0  0  0  0
    5.6548   -0.2137   23.2507 H   0  0  0  0  0  0  0  0  0  0  0  0
    6.7072    1.2135   23.5070 H   0  0  0  0  0  0  0  0  0  0  0  0
    5.2118    0.5127   21.0387 H   0  0  0  0  0  0  0  0  0  0  0  0
    6.2589    1.9370   21.2952 H   0  0  0  0  0  0  0  0  0  0  0  0
    7.5982   -3.5608   25.4036 H   0  0  0  0  0  0  0  0  0  0  0  0
    6.9924   -5.8306   27.4217 H   0  0  0  0  0  0  0  0  0  0  0  0
    7.7614   -2.9485   28.1085 H   0  0  0  0  0  0  0  0  0  0  0  0
    9.9408   -3.8063   28.8588 H   0  0  0  0  0  0  0  0  0  0  0  0
   10.9099   -4.6282   26.6546 H   0  0  0  0  0  0  0  0  0  0  0  0
    6.8089    2.2157   18.4431 H   0  0  0  0  0  0  0  0  0  0  0  0
    5.4987    1.1472   18.9922 H   0  0  0  0  0  0  0  0  0  0  0  0
    6.3106    0.8293   17.4483 H   0  0  0  0  0  0  0  0  0  0  0  0
    9.6410   -1.4965   20.3178 H   0  0  0  0  0  0  0  0  0  0  0  0
    5.3854   -5.8485   23.9642 H   0  0  0  0  0  0  0  0  0  0  0  0
    5.8283   -3.2958   26.9140 H   0  0  0  0  0  0  0  0  0  0  0  0
    7.9117   -3.8816   30.1640 H   0  0  0  0  0  0  0  0  0  0  0  0
   10.4913   -5.9606   28.4247 H   0  0  0  0  0  0  0  0  0  0  0  0
  1  2  2  0  0  0  0
  1  6  1  0  0  0  0
  1 29  1  0  0  0  0
  2  7  1  0  0  0  0
  2 30  1  0  0  0  0
  3  4  1  0  0  0  0
  3  7  2  0  0  0  0
  3 31  1  0  0  0  0
  4  5  1  0  0  0  0
  4  6  2  0  0  0  0
  5  8  2  0  0  0  0
  5 11  1  0  0  0  0
  6 19  1  0  0  0  0
  7 28  1  0  0  0  0
  8 19  1  0  0  0  0
  8 20  1  0  0  0  0
  9 13  1  0  0  0  0
  9 21  2  0  0  0  0
  9 24  1  0  0  0  0
 10 18  1  0  0  0  0
 10 20  1  0  0  0  0
 10 22  2  0  0  0  0
 11 12  1  0  0  0  0
 11 32  1  0  0  0  0
 11 33  1  0  0  0  0
 12 20  1  0  0  0  0
 12 34  1  0  0  0  0
 12 35  1  0  0  0  0
 13 14  1  0  0  0  0
 13 23  1  0  0  0  0
 13 36  1  6  0  0  0
 14 15  1  0  0  0  0
 14 25  1  0  0  0  0
 14 37  1  1  0  0  0
 15 16  1  0  0  0  0
 15 26  1  0  0  0  0
 15 38  1  6  0  0  0
 16 17  1  0  0  0  0
 16 27  1  0  0  0  0
 16 39  1  1  0  0  0
 17 23  1  0  0  0  0
 17 28  1  0  0  0  0
 17 40  1  6  0  0  0
 18 41  1  0  0  0  0
 18 42  1  0  0  0  0
 18 43  1  0  0  0  0
 19 44  1  0  0  0  0
 24 45  1  0  0  0  0
 25 46  1  0  0  0  0
 26 47  1  0  0  0  0
 27 48  1  0  0  0  0
M  END
>  <Chemgauss4 Score>
-5.15338468551636

>  <Number of Confs>
109

$$$$
