HAR-NEW-972-1
 OpenBabel03242009303D

 45 47  0  0  1  0  0  0  0  0999 V2000
    9.6135   -2.3658   25.6448 C   0  0  0  0  0  0  0  0  0  0  0  0
   10.2451   -1.5642   24.6629 C   0  0  0  0  0  0  0  0  0  0  0  0
    9.9391   -3.6787   25.3726 C   0  0  0  0  0  0  0  0  0  0  0  0
   10.9387   -2.4167   23.8281 C   0  0  0  0  0  0  0  0  0  0  0  0
    6.3054   -4.3379   24.8548 C   0  0  0  0  0  0  0  0  0  0  0  0
   10.2511   -0.0857   24.4838 C   0  0  0  0  0  0  0  0  0  0  0  0
   11.7351   -2.0267   22.6366 C   0  0  0  0  0  0  0  0  0  0  0  0
   12.0069   -0.5101   22.6666 C   0  0  0  0  0  0  0  0  0  0  0  0
    7.9469   -4.3318   28.0193 C   0  0  0  0  0  0  0  0  0  0  0  0
    9.3204   -4.8851   27.6168 C   0  0  0  0  0  0  0  0  0  0  0  0
    6.8094   -5.0016   27.2563 C   0  0  0  0  0  0  0  0  0  0  0  0
    8.3249   -5.6473   25.4309 C   0  0  0  0  0  0  0  0  0  0  0  0
    9.5466   -4.9688   26.0878 C   0  0  1  0  0  0  0  0  0  0  0  0
   10.7513    0.3048   23.0690 C   0  0  2  0  0  0  0  0  0  0  0  0
    6.7748   -4.4489   23.4264 C   0  0  0  0  0  0  0  0  0  0  0  0
   11.0343    1.8039   22.9996 C   0  0  0  0  0  0  0  0  0  0  0  0
   10.7467   -3.6982   24.2624 N   0  0  0  0  0  0  0  0  0  0  0  0
    7.0827   -4.9789   25.8180 N   0  0  0  0  0  0  0  0  0  0  0  0
    9.8431    2.5329   23.2785 N   0  0  0  0  0  0  0  0  0  0  0  0
    5.2776   -3.7031   25.1051 O   0  0  0  0  0  0  0  0  0  0  0  0
    5.5981   -3.5874   22.4411 Cl  0  0  0  0  0  0  0  0  0  0  0  0
    8.9918   -2.0259   26.4618 H   0  0  0  0  0  0  0  0  0  0  0  0
    9.2448    0.3185   24.6438 H   0  0  0  0  0  0  0  0  0  0  0  0
   10.9052    0.3536   25.2475 H   0  0  0  0  0  0  0  0  0  0  0  0
   12.6837   -2.5732   22.6007 H   0  0  0  0  0  0  0  0  0  0  0  0
   11.1709   -2.2783   21.7306 H   0  0  0  0  0  0  0  0  0  0  0  0
   12.8137   -0.3026   23.3826 H   0  0  0  0  0  0  0  0  0  0  0  0
   12.3688   -0.1925   21.6814 H   0  0  0  0  0  0  0  0  0  0  0  0
    7.7994   -4.4763   29.0992 H   0  0  0  0  0  0  0  0  0  0  0  0
    7.9250   -3.2480   27.8416 H   0  0  0  0  0  0  0  0  0  0  0  0
   10.1085   -4.2528   28.0750 H   0  0  0  0  0  0  0  0  0  0  0  0
    9.4560   -5.8868   28.0708 H   0  0  0  0  0  0  0  0  0  0  0  0
    6.6753   -6.0234   27.6142 H   0  0  0  0  0  0  0  0  0  0  0  0
    5.8714   -4.4645   27.4184 H   0  0  0  0  0  0  0  0  0  0  0  0
    8.3947   -5.5896   24.3363 H   0  0  0  0  0  0  0  0  0  0  0  0
    8.3156   -6.7106   25.6855 H   0  0  0  0  0  0  0  0  0  0  0  0
   10.4163   -5.6898   25.9242 H   0  0  0  0  0  0  0  0  0  0  0  0
    9.9563    0.0760   22.3458 H   0  0  0  0  0  0  0  0  0  0  0  0
    6.8006   -5.4955   23.1452 H   0  0  0  0  0  0  0  0  0  0  0  0
    7.7482   -3.9801   23.3390 H   0  0  0  0  0  0  0  0  0  0  0  0
   11.8005    2.0224   23.7415 H   0  0  0  0  0  0  0  0  0  0  0  0
   11.3890    2.0190   21.9930 H   0  0  0  0  0  0  0  0  0  0  0  0
   11.1335   -4.5280   23.8335 H   0  0  0  0  0  0  0  0  0  0  0  0
    9.6167    3.1356   22.5076 H   0  0  0  0  0  0  0  0  0  0  0  0
    9.0775    1.9005   23.4296 H   0  0  0  0  0  0  0  0  0  0  0  0
  1  2  1  0  0  0  0
  1  3  2  0  0  0  0
  1 22  1  0  0  0  0
  2  4  2  0  0  0  0
  2  6  1  0  0  0  0
  3 13  1  0  0  0  0
  3 17  1  0  0  0  0
  4  7  1  0  0  0  0
  4 17  1  0  0  0  0
  5 15  1  0  0  0  0
  5 18  1  0  0  0  0
  5 20  2  0  0  0  0
  6 14  1  0  0  0  0
  6 23  1  0  0  0  0
  6 24  1  0  0  0  0
  7  8  1  0  0  0  0
  7 25  1  0  0  0  0
  7 26  1  0  0  0  0
  8 14  1  0  0  0  0
  8 27  1  0  0  0  0
  8 28  1  0  0  0  0
  9 10  1  0  0  0  0
  9 11  1  0  0  0  0
  9 29  1  0  0  0  0
  9 30  1  0  0  0  0
 10 13  1  0  0  0  0
 10 31  1  0  0  0  0
 10 32  1  0  0  0  0
 11 18  1  0  0  0  0
 11 33  1  0  0  0  0
 11 34  1  0  0  0  0
 12 13  1  0  0  0  0
 12 18  1  0  0  0  0
 12 35  1  0  0  0  0
 12 36  1  0  0  0  0
 13 37  1  6  0  0  0
 14 16  1  0  0  0  0
 14 38  1  6  0  0  0
 15 21  1  0  0  0  0
 15 39  1  0  0  0  0
 15 40  1  0  0  0  0
 16 19  1  0  0  0  0
 16 41  1  0  0  0  0
 16 42  1  0  0  0  0
 17 43  1  0  0  0  0
 19 44  1  0  0  0  0
 19 45  1  0  0  0  0
M  END
>  <Chemgauss4 Score>
-5.6264796257019

>  <Number of Confs>
200

$$$$
