DAN-LON-a5f-6
 OpenBabel03242009303D

 44 46  0  0  1  0  0  0  0  0999 V2000
    6.7197   -3.7868   22.0661 C   0  0  0  0  0  0  0  0  0  0  0  0
    7.0587   -4.9407   22.7726 C   0  0  0  0  0  0  0  0  0  0  0  0
    7.4121   -2.5983   22.2980 C   0  0  0  0  0  0  0  0  0  0  0  0
   14.3437   -1.2808   22.1400 C   0  0  0  0  0  0  0  0  0  0  0  0
    8.0900   -4.9061   23.7112 C   0  0  0  0  0  0  0  0  0  0  0  0
    8.4434   -2.5637   23.2366 C   0  0  0  0  0  0  0  0  0  0  0  0
   13.7634   -0.9910   23.3748 C   0  0  0  0  0  0  0  0  0  0  0  0
   13.5666   -1.2594   20.9818 C   0  0  0  0  0  0  0  0  0  0  0  0
   11.6286   -0.6584   22.2934 C   0  0  0  0  0  0  0  0  0  0  0  0
    8.7824   -3.7176   23.9432 C   0  0  0  0  0  0  0  0  0  0  0  0
   12.4058   -0.6798   23.4515 C   0  0  0  0  0  0  0  0  0  0  0  0
   12.2090   -0.9483   21.0586 C   0  0  0  0  0  0  0  0  0  0  0  0
    8.9576   -4.7036   27.0162 C   0  0  0  0  0  0  0  0  0  0  0  0
    9.2405   -2.1925   26.8811 C   0  0  0  0  0  0  0  0  0  0  0  0
   10.4251   -1.2910   26.5438 C   0  0  0  0  0  0  0  0  0  0  0  0
   11.0144   -2.6495   24.6461 C   0  0  0  0  0  0  0  0  0  0  0  0
    9.9101   -3.6789   24.9696 C   0  0  1  0  0  0  0  0  0  0  0  0
   11.7816   -0.3691   24.7811 C   0  0  0  0  0  0  0  0  0  0  0  0
    8.2941   -4.5001   28.3556 C   0  0  0  0  0  0  0  0  0  0  0  0
    9.3959   -3.5522   26.3491 N   0  0  0  0  0  0  0  0  0  0  0  0
   10.6957   -1.2930   25.1050 N   0  0  0  0  0  0  0  0  0  0  0  0
    9.0845   -5.8492   26.5758 O   0  0  0  0  0  0  0  0  0  0  0  0
   11.2504   -0.9232   19.6295 Cl  0  0  0  0  0  0  0  0  0  0  0  0
    7.1095   -5.7897   28.5314 Cl  0  0  0  0  0  0  0  0  0  0  0  0
    5.9176   -3.8143   21.3343 H   0  0  0  0  0  0  0  0  0  0  0  0
    6.5205   -5.8665   22.5914 H   0  0  0  0  0  0  0  0  0  0  0  0
    7.1492   -1.7000   21.7473 H   0  0  0  0  0  0  0  0  0  0  0  0
   15.4009   -1.5232   22.0807 H   0  0  0  0  0  0  0  0  0  0  0  0
    8.3471   -5.8100   24.2572 H   0  0  0  0  0  0  0  0  0  0  0  0
    8.9772   -1.6332   23.4108 H   0  0  0  0  0  0  0  0  0  0  0  0
   14.3765   -1.0101   24.2720 H   0  0  0  0  0  0  0  0  0  0  0  0
   14.0323   -1.4877   20.0263 H   0  0  0  0  0  0  0  0  0  0  0  0
   10.5707   -0.4147   22.3584 H   0  0  0  0  0  0  0  0  0  0  0  0
    9.1068   -2.2050   27.9652 H   0  0  0  0  0  0  0  0  0  0  0  0
    8.3178   -1.7870   26.4479 H   0  0  0  0  0  0  0  0  0  0  0  0
   10.1812   -0.2739   26.8742 H   0  0  0  0  0  0  0  0  0  0  0  0
   11.3074   -1.6132   27.1129 H   0  0  0  0  0  0  0  0  0  0  0  0
   11.9462   -2.9896   25.1199 H   0  0  0  0  0  0  0  0  0  0  0  0
   11.1962   -2.6399   23.5632 H   0  0  0  0  0  0  0  0  0  0  0  0
   10.3905   -4.7039   24.8976 H   0  0  0  0  0  0  0  0  0  0  0  0
   12.5270   -0.4308   25.5815 H   0  0  0  0  0  0  0  0  0  0  0  0
   11.3724    0.6466   24.7954 H   0  0  0  0  0  0  0  0  0  0  0  0
    7.7986   -3.5361   28.3589 H   0  0  0  0  0  0  0  0  0  0  0  0
    9.0447   -4.5748   29.1338 H   0  0  0  0  0  0  0  0  0  0  0  0
  1  2  1  0  0  0  0
  1  3  2  0  0  0  0
  1 25  1  0  0  0  0
  2  5  2  0  0  0  0
  2 26  1  0  0  0  0
  3  6  1  0  0  0  0
  3 27  1  0  0  0  0
  4  7  2  0  0  0  0
  4  8  1  0  0  0  0
  4 28  1  0  0  0  0
  5 10  1  0  0  0  0
  5 29  1  0  0  0  0
  6 10  2  0  0  0  0
  6 30  1  0  0  0  0
  7 11  1  0  0  0  0
  7 31  1  0  0  0  0
  8 12  2  0  0  0  0
  8 32  1  0  0  0  0
  9 11  2  0  0  0  0
  9 12  1  0  0  0  0
  9 33  1  0  0  0  0
 10 17  1  0  0  0  0
 11 18  1  0  0  0  0
 12 23  1  0  0  0  0
 13 19  1  0  0  0  0
 13 20  1  0  0  0  0
 13 22  2  0  0  0  0
 14 15  1  0  0  0  0
 14 20  1  0  0  0  0
 14 34  1  0  0  0  0
 14 35  1  0  0  0  0
 15 21  1  0  0  0  0
 15 36  1  0  0  0  0
 15 37  1  0  0  0  0
 16 17  1  0  0  0  0
 16 21  1  0  0  0  0
 16 38  1  0  0  0  0
 16 39  1  0  0  0  0
 17 20  1  0  0  0  0
 17 40  1  6  0  0  0
 18 21  1  0  0  0  0
 18 41  1  0  0  0  0
 18 42  1  0  0  0  0
 19 24  1  0  0  0  0
 19 43  1  0  0  0  0
 19 44  1  0  0  0  0
M  END
>  <Chemgauss4 Score>
-4.64026832580566

>  <Number of Confs>
114

$$$$
