PAT-GYR-359-1
 OpenBabel03242009303D

 34 35  0  0  0  0  0  0  0  0999 V2000
   14.2362   -0.5864   22.1357 C   0  0  0  0  0  0  0  0  0  0  0  0
   13.1719   -1.0942   22.3621 C   0  0  0  0  0  0  0  0  0  0  0  0
   10.7431   -1.1565   22.0840 C   0  0  0  0  0  0  0  0  0  0  0  0
   11.8324   -2.8313   23.4425 C   0  0  0  0  0  0  0  0  0  0  0  0
    9.5072   -1.7473   22.3466 C   0  0  0  0  0  0  0  0  0  0  0  0
   10.5964   -3.4221   23.7051 C   0  0  0  0  0  0  0  0  0  0  0  0
   11.9057   -1.6985   22.6319 C   0  0  0  0  0  0  0  0  0  0  0  0
    9.4338   -2.8801   23.1572 C   0  0  0  0  0  0  0  0  0  0  0  0
    7.5932   -4.7292   25.5449 C   0  0  0  0  0  0  0  0  0  0  0  0
    7.0630   -5.7929   27.7158 C   0  0  0  0  0  0  0  0  0  0  0  0
    7.0781   -3.3289   27.6291 C   0  0  0  0  0  0  0  0  0  0  0  0
    7.7572   -5.6993   29.0654 C   0  0  0  0  0  0  0  0  0  0  0  0
    7.7512   -3.3493   28.9973 C   0  0  0  0  0  0  0  0  0  0  0  0
    8.1033   -3.5151   23.4411 C   0  0  0  0  0  0  0  0  0  0  0  0
    7.3091   -4.5921   26.9141 N   0  0  0  0  0  0  0  0  0  0  0  0
    7.8071   -3.5411   24.8560 N   0  0  0  0  0  0  0  0  0  0  0  0
    7.6458   -5.8264   24.9793 O   0  0  0  0  0  0  0  0  0  0  0  0
    7.3567   -4.5044   29.7386 O   0  0  0  0  0  0  0  0  0  0  0  0
   15.1802   -0.1360   21.9353 H   0  0  0  0  0  0  0  0  0  0  0  0
   10.7843   -0.2749   21.4487 H   0  0  0  0  0  0  0  0  0  0  0  0
   12.7294   -3.2649   23.8784 H   0  0  0  0  0  0  0  0  0  0  0  0
    8.6067   -1.3186   21.9148 H   0  0  0  0  0  0  0  0  0  0  0  0
   10.5486   -4.3034   24.3393 H   0  0  0  0  0  0  0  0  0  0  0  0
    7.3800   -6.6965   27.1868 H   0  0  0  0  0  0  0  0  0  0  0  0
    5.9768   -5.8495   27.8557 H   0  0  0  0  0  0  0  0  0  0  0  0
    5.9921   -3.2323   27.7412 H   0  0  0  0  0  0  0  0  0  0  0  0
    7.4466   -2.4659   27.0728 H   0  0  0  0  0  0  0  0  0  0  0  0
    7.4662   -6.5472   29.6935 H   0  0  0  0  0  0  0  0  0  0  0  0
    8.8485   -5.7207   28.9620 H   0  0  0  0  0  0  0  0  0  0  0  0
    8.8438   -3.3260   28.9056 H   0  0  0  0  0  0  0  0  0  0  0  0
    7.4495   -2.4676   29.5716 H   0  0  0  0  0  0  0  0  0  0  0  0
    7.2988   -2.9673   22.9382 H   0  0  0  0  0  0  0  0  0  0  0  0
    8.0736   -4.5463   23.0739 H   0  0  0  0  0  0  0  0  0  0  0  0
    7.7539   -2.6661   25.3611 H   0  0  0  0  0  0  0  0  0  0  0  0
  1  2  3  0  0  0  0
  1 19  1  0  0  0  0
  2  7  1  0  0  0  0
  3  5  2  0  0  0  0
  3  7  1  0  0  0  0
  3 20  1  0  0  0  0
  4  6  1  0  0  0  0
  4  7  2  0  0  0  0
  4 21  1  0  0  0  0
  5  8  1  0  0  0  0
  5 22  1  0  0  0  0
  6  8  2  0  0  0  0
  6 23  1  0  0  0  0
  8 14  1  0  0  0  0
  9 15  1  0  0  0  0
  9 16  1  0  0  0  0
  9 17  2  0  0  0  0
 10 12  1  0  0  0  0
 10 15  1  0  0  0  0
 10 24  1  0  0  0  0
 10 25  1  0  0  0  0
 11 13  1  0  0  0  0
 11 15  1  0  0  0  0
 11 26  1  0  0  0  0
 11 27  1  0  0  0  0
 12 18  1  0  0  0  0
 12 28  1  0  0  0  0
 12 29  1  0  0  0  0
 13 18  1  0  0  0  0
 13 30  1  0  0  0  0
 13 31  1  0  0  0  0
 14 16  1  0  0  0  0
 14 32  1  0  0  0  0
 14 33  1  0  0  0  0
 16 34  1  0  0  0  0
M  END
>  <Chemgauss4 Score>
-4.81664085388184

>  <Number of Confs>
33

$$$$
