CHR-SOS-54d-3
 OpenBabel03242009303D

 51 53  0  0  1  0  0  0  0  0999 V2000
    8.0857   -1.9247   23.5726 C   0  0  0  0  0  0  0  0  0  0  0  0
    9.2221   -2.2510   23.7827 C   0  0  0  0  0  0  0  0  0  0  0  0
    6.1221   -5.7392   28.1445 C   0  0  0  0  0  0  0  0  0  0  0  0
    6.8686   -5.5178   26.9926 C   0  0  0  0  0  0  0  0  0  0  0  0
    6.5986   -5.2177   29.3364 C   0  0  0  0  0  0  0  0  0  0  0  0
    8.4422   -4.3124   28.3069 C   0  0  0  0  0  0  0  0  0  0  0  0
    8.0522   -4.7917   27.0667 C   0  0  0  0  0  0  0  0  0  0  0  0
   10.2141   -4.3878   25.8400 C   0  0  0  0  0  0  0  0  0  0  0  0
   12.2847   -0.1982   23.6424 C   0  0  0  0  0  0  0  0  0  0  0  0
   11.7049   -0.9534   22.4519 C   0  0  0  0  0  0  0  0  0  0  0  0
   11.4225   -0.3655   24.8885 C   0  0  0  0  0  0  0  0  0  0  0  0
    5.5062   -3.6160   24.1267 C   0  0  0  0  0  0  0  0  0  0  0  0
    5.8326   -2.7338   22.9214 C   0  0  0  0  0  0  0  0  0  0  0  0
   11.4792   -2.4320   22.7759 C   0  0  0  0  0  0  0  0  0  0  0  0
   11.1951   -1.8410   25.2248 C   0  0  0  0  0  0  0  0  0  0  0  0
    4.9389   -2.7935   25.2806 C   0  0  0  0  0  0  0  0  0  0  0  0
    6.0892   -0.8015   24.5304 C   0  0  0  0  0  0  0  0  0  0  0  0
    6.6884   -1.5236   23.3146 C   0  0  1  0  0  0  0  0  0  0  0  0
   10.6243   -2.6538   24.0426 C   0  0  0  0  0  0  0  0  0  0  0  0
   10.6292   -4.1491   24.4040 C   0  0  0  0  0  0  0  0  0  0  0  0
    7.7435   -4.5074   29.4477 N   0  0  0  0  0  0  0  0  0  0  0  0
    5.8422   -1.7065   25.6570 N   0  0  0  0  0  0  0  0  0  0  0  0
    8.8335   -4.5502   25.9118 N   0  0  0  0  0  0  0  0  0  0  0  0
   11.0182   -4.4234   26.7656 O   0  0  0  0  0  0  0  0  0  0  0  0
    5.1965   -6.3024   28.1102 H   0  0  0  0  0  0  0  0  0  0  0  0
    6.5193   -5.9150   26.0432 H   0  0  0  0  0  0  0  0  0  0  0  0
    6.0535   -5.3635   30.2632 H   0  0  0  0  0  0  0  0  0  0  0  0
    9.3562   -3.7387   28.4284 H   0  0  0  0  0  0  0  0  0  0  0  0
   13.2984   -0.5642   23.8482 H   0  0  0  0  0  0  0  0  0  0  0  0
   12.3744    0.8657   23.3961 H   0  0  0  0  0  0  0  0  0  0  0  0
   10.7590   -0.4893   22.1471 H   0  0  0  0  0  0  0  0  0  0  0  0
   12.3863   -0.8670   21.5977 H   0  0  0  0  0  0  0  0  0  0  0  0
   11.9067    0.1318   25.7369 H   0  0  0  0  0  0  0  0  0  0  0  0
   10.4588    0.1363   24.7390 H   0  0  0  0  0  0  0  0  0  0  0  0
    4.7808   -4.3845   23.8289 H   0  0  0  0  0  0  0  0  0  0  0  0
    6.4109   -4.1420   24.4540 H   0  0  0  0  0  0  0  0  0  0  0  0
    6.3608   -3.3397   22.1673 H   0  0  0  0  0  0  0  0  0  0  0  0
    4.8982   -2.4017   22.4441 H   0  0  0  0  0  0  0  0  0  0  0  0
   11.0163   -2.9194   21.9077 H   0  0  0  0  0  0  0  0  0  0  0  0
   12.4609   -2.9057   22.9115 H   0  0  0  0  0  0  0  0  0  0  0  0
   12.1567   -2.2731   25.5334 H   0  0  0  0  0  0  0  0  0  0  0  0
   10.5305   -1.9084   26.0962 H   0  0  0  0  0  0  0  0  0  0  0  0
    3.9756   -2.3672   24.9845 H   0  0  0  0  0  0  0  0  0  0  0  0
    4.7471   -3.4347   26.1478 H   0  0  0  0  0  0  0  0  0  0  0  0
    6.7428    0.0207   24.8579 H   0  0  0  0  0  0  0  0  0  0  0  0
    5.1368   -0.3312   24.2498 H   0  0  0  0  0  0  0  0  0  0  0  0
    6.6895   -0.8161   22.4615 H   0  0  0  0  0  0  0  0  0  0  0  0
   11.6349   -4.5385   24.2487 H   0  0  0  0  0  0  0  0  0  0  0  0
    9.9410   -4.6679   23.7374 H   0  0  0  0  0  0  0  0  0  0  0  0
    5.4183   -1.1733   26.4196 H   0  0  0  0  0  0  0  0  0  0  0  0
    8.3129   -4.4910   25.0391 H   0  0  0  0  0  0  0  0  0  0  0  0
  1  2  3  0  0  0  0
  1 18  1  0  0  0  0
  2 19  1  0  0  0  0
  3  4  2  0  0  0  0
  3  5  1  0  0  0  0
  3 25  1  0  0  0  0
  4  7  1  0  0  0  0
  4 26  1  0  0  0  0
  5 21  2  0  0  0  0
  5 27  1  0  0  0  0
  6  7  2  0  0  0  0
  6 21  1  0  0  0  0
  6 28  1  0  0  0  0
  7 23  1  0  0  0  0
  8 20  1  0  0  0  0
  8 23  1  0  0  0  0
  8 24  2  0  0  0  0
  9 10  1  0  0  0  0
  9 11  1  0  0  0  0
  9 29  1  0  0  0  0
  9 30  1  0  0  0  0
 10 14  1  0  0  0  0
 10 31  1  0  0  0  0
 10 32  1  0  0  0  0
 11 15  1  0  0  0  0
 11 33  1  0  0  0  0
 11 34  1  0  0  0  0
 12 13  1  0  0  0  0
 12 16  1  0  0  0  0
 12 35  1  0  0  0  0
 12 36  1  0  0  0  0
 13 18  1  0  0  0  0
 13 37  1  0  0  0  0
 13 38  1  0  0  0  0
 14 19  1  0  0  0  0
 14 39  1  0  0  0  0
 14 40  1  0  0  0  0
 15 19  1  0  0  0  0
 15 41  1  0  0  0  0
 15 42  1  0  0  0  0
 16 22  1  0  0  0  0
 16 43  1  0  0  0  0
 16 44  1  0  0  0  0
 17 18  1  0  0  0  0
 17 22  1  0  0  0  0
 17 45  1  0  0  0  0
 17 46  1  0  0  0  0
 18 47  1  6  0  0  0
 19 20  1  0  0  0  0
 20 48  1  0  0  0  0
 20 49  1  0  0  0  0
 22 50  1  0  0  0  0
 23 51  1  0  0  0  0
M  END
>  <Chemgauss4 Score>
-5.32222080230713

>  <Number of Confs>
187

$$$$
