KIM-UNI-60f-5
 OpenBabel03242009303D

 37 38  0  0  0  0  0  0  0  0999 V2000
   12.9426   -0.2669   24.0446 C   0  0  0  0  0  0  0  0  0  0  0  0
   13.3714   -0.4757   22.7437 C   0  0  0  0  0  0  0  0  0  0  0  0
   11.4960   -1.6978   22.2267 C   0  0  0  0  0  0  0  0  0  0  0  0
   11.7227   -0.8158   24.4238 C   0  0  0  0  0  0  0  0  0  0  0  0
   10.9794   -1.5464   23.5034 C   0  0  0  0  0  0  0  0  0  0  0  0
    8.5604   -1.7314   23.1160 C   0  0  0  0  0  0  0  0  0  0  0  0
    9.6809   -3.1141   24.8978 C   0  0  0  0  0  0  0  0  0  0  0  0
    9.3695   -6.2545   25.3021 C   0  0  0  0  0  0  0  0  0  0  0  0
    7.3373   -2.5662   23.3879 C   0  0  0  0  0  0  0  0  0  0  0  0
    7.2131   -2.7661   24.8765 C   0  0  0  0  0  0  0  0  0  0  0  0
   11.2364   -0.6068   25.8204 C   0  0  0  0  0  0  0  0  0  0  0  0
    8.1130   -5.8084   26.0272 C   0  0  0  0  0  0  0  0  0  0  0  0
    8.2218   -4.3605   26.4864 C   0  0  0  0  0  0  0  0  0  0  0  0
   12.6771   -1.1795   21.8217 N   0  0  0  0  0  0  0  0  0  0  0  0
    9.4029   -6.1329   24.0106 N   0  0  0  0  0  0  0  0  0  0  0  0
    9.7028   -2.1380   23.8489 N   0  0  0  0  0  0  0  0  0  0  0  0
    8.3990   -3.4390   25.3734 N   0  0  0  0  0  0  0  0  0  0  0  0
   10.3988   -6.7466   26.0609 N   0  0  0  0  0  0  0  0  0  0  0  0
    8.4937   -0.7912   22.3239 O   0  0  0  0  0  0  0  0  0  0  0  0
   10.6947   -3.6740   25.3282 O   0  0  0  0  0  0  0  0  0  0  0  0
   13.5466    0.3079   24.7384 H   0  0  0  0  0  0  0  0  0  0  0  0
   14.3161   -0.0687   22.3983 H   0  0  0  0  0  0  0  0  0  0  0  0
   10.9623   -2.2569   21.4638 H   0  0  0  0  0  0  0  0  0  0  0  0
    6.4582   -2.0648   22.9687 H   0  0  0  0  0  0  0  0  0  0  0  0
    7.4510   -3.5345   22.8895 H   0  0  0  0  0  0  0  0  0  0  0  0
    7.1070   -1.7968   25.3754 H   0  0  0  0  0  0  0  0  0  0  0  0
    6.3468   -3.3875   25.1308 H   0  0  0  0  0  0  0  0  0  0  0  0
   10.6337    0.3068   25.8800 H   0  0  0  0  0  0  0  0  0  0  0  0
   10.6241   -1.4522   26.1576 H   0  0  0  0  0  0  0  0  0  0  0  0
   12.0746   -0.5193   26.5229 H   0  0  0  0  0  0  0  0  0  0  0  0
    7.2485   -5.9430   25.3664 H   0  0  0  0  0  0  0  0  0  0  0  0
    7.9700   -6.4592   26.8976 H   0  0  0  0  0  0  0  0  0  0  0  0
    7.3068   -4.0598   27.0060 H   0  0  0  0  0  0  0  0  0  0  0  0
    9.0679   -4.2186   27.1660 H   0  0  0  0  0  0  0  0  0  0  0  0
    8.5139   -5.7302   23.6945 H   0  0  0  0  0  0  0  0  0  0  0  0
   10.3217   -6.8125   27.0701 H   0  0  0  0  0  0  0  0  0  0  0  0
   11.2665   -7.0655   25.6430 H   0  0  0  0  0  0  0  0  0  0  0  0
  1  2  2  0  0  0  0
  1  4  1  0  0  0  0
  1 21  1  0  0  0  0
  2 14  1  0  0  0  0
  2 22  1  0  0  0  0
  3  5  1  0  0  0  0
  3 14  2  0  0  0  0
  3 23  1  0  0  0  0
  4  5  2  0  0  0  0
  4 11  1  0  0  0  0
  5 16  1  0  0  0  0
  6  9  1  0  0  0  0
  6 16  1  0  0  0  0
  6 19  2  0  0  0  0
  7 16  1  0  0  0  0
  7 17  1  0  0  0  0
  7 20  2  0  0  0  0
  8 12  1  0  0  0  0
  8 15  2  0  0  0  0
  8 18  1  0  0  0  0
  9 10  1  0  0  0  0
  9 24  1  0  0  0  0
  9 25  1  0  0  0  0
 10 17  1  0  0  0  0
 10 26  1  0  0  0  0
 10 27  1  0  0  0  0
 11 28  1  0  0  0  0
 11 29  1  0  0  0  0
 11 30  1  0  0  0  0
 12 13  1  0  0  0  0
 12 31  1  0  0  0  0
 12 32  1  0  0  0  0
 13 17  1  0  0  0  0
 13 33  1  0  0  0  0
 13 34  1  0  0  0  0
 15 35  1  0  0  0  0
 18 36  1  0  0  0  0
 18 37  1  0  0  0  0
M  END
>  <Chemgauss4 Score>
-5.30615615844727

>  <Number of Confs>
55

$$$$
