KIM-UNI-60f-6
 OpenBabel03242009303D

 36 37  0  0  0  0  0  0  0  0999 V2000
   12.7294   -1.2100   22.0947 C   0  0  0  0  0  0  0  0  0  0  0  0
   13.4316   -0.2833   22.8483 C   0  0  0  0  0  0  0  0  0  0  0  0
   11.7746   -0.1860   24.4367 C   0  0  0  0  0  0  0  0  0  0  0  0
   11.4885   -1.6251   22.5649 C   0  0  0  0  0  0  0  0  0  0  0  0
   10.9947   -1.1081   23.7575 C   0  0  0  0  0  0  0  0  0  0  0  0
    8.7244   -0.5063   24.4775 C   0  0  0  0  0  0  0  0  0  0  0  0
    9.5201   -2.8919   24.6126 C   0  0  0  0  0  0  0  0  0  0  0  0
    8.0806   -4.3754   27.6362 C   0  0  0  0  0  0  0  0  0  0  0  0
    7.5173   -0.9778   25.2441 C   0  0  0  0  0  0  0  0  0  0  0  0
    7.0964   -2.3188   24.7006 C   0  0  0  0  0  0  0  0  0  0  0  0
   10.7096   -2.6230   21.7723 C   0  0  0  0  0  0  0  0  0  0  0  0
    8.4695   -5.1702   26.4028 C   0  0  0  0  0  0  0  0  0  0  0  0
    7.8302   -4.6501   25.1227 C   0  0  0  0  0  0  0  0  0  0  0  0
   12.9846    0.2413   24.0113 N   0  0  0  0  0  0  0  0  0  0  0  0
    9.7082   -1.5084   24.2899 N   0  0  0  0  0  0  0  0  0  0  0  0
    8.1865   -3.2646   24.8527 N   0  0  0  0  0  0  0  0  0  0  0  0
    8.6716   -4.8652   28.7815 N   0  0  0  0  0  0  0  0  0  0  0  0
    8.7749    0.6557   24.0737 O   0  0  0  0  0  0  0  0  0  0  0  0
   10.4502   -3.6975   24.7252 O   0  0  0  0  0  0  0  0  0  0  0  0
    7.3345   -3.4008   27.6188 O   0  0  0  0  0  0  0  0  0  0  0  0
   13.1428   -1.5938   21.1682 H   0  0  0  0  0  0  0  0  0  0  0  0
   14.4042    0.0730   22.5249 H   0  0  0  0  0  0  0  0  0  0  0  0
   11.4438    0.2531   25.3732 H   0  0  0  0  0  0  0  0  0  0  0  0
    7.7646   -1.0286   26.3101 H   0  0  0  0  0  0  0  0  0  0  0  0
    6.7083   -0.2514   25.1132 H   0  0  0  0  0  0  0  0  0  0  0  0
    6.2183   -2.6829   25.2448 H   0  0  0  0  0  0  0  0  0  0  0  0
    6.8496   -2.2643   23.6341 H   0  0  0  0  0  0  0  0  0  0  0  0
   10.9636   -3.6412   22.0889 H   0  0  0  0  0  0  0  0  0  0  0  0
    9.6302   -2.4758   21.9009 H   0  0  0  0  0  0  0  0  0  0  0  0
   10.9193   -2.5276   20.6996 H   0  0  0  0  0  0  0  0  0  0  0  0
    8.2010   -6.2213   26.5642 H   0  0  0  0  0  0  0  0  0  0  0  0
    9.5604   -5.1123   26.3070 H   0  0  0  0  0  0  0  0  0  0  0  0
    8.1308   -5.2444   24.2538 H   0  0  0  0  0  0  0  0  0  0  0  0
    6.7395   -4.6869   25.2045 H   0  0  0  0  0  0  0  0  0  0  0  0
    9.2834   -5.6713   28.7100 H   0  0  0  0  0  0  0  0  0  0  0  0
    8.5163   -4.4479   29.6937 H   0  0  0  0  0  0  0  0  0  0  0  0
  1  2  2  0  0  0  0
  1  4  1  0  0  0  0
  1 21  1  0  0  0  0
  2 14  1  0  0  0  0
  2 22  1  0  0  0  0
  3  5  1  0  0  0  0
  3 14  2  0  0  0  0
  3 23  1  0  0  0  0
  4  5  2  0  0  0  0
  4 11  1  0  0  0  0
  5 15  1  0  0  0  0
  6  9  1  0  0  0  0
  6 15  1  0  0  0  0
  6 18  2  0  0  0  0
  7 15  1  0  0  0  0
  7 16  1  0  0  0  0
  7 19  2  0  0  0  0
  8 12  1  0  0  0  0
  8 17  1  0  0  0  0
  8 20  2  0  0  0  0
  9 10  1  0  0  0  0
  9 24  1  0  0  0  0
  9 25  1  0  0  0  0
 10 16  1  0  0  0  0
 10 26  1  0  0  0  0
 10 27  1  0  0  0  0
 11 28  1  0  0  0  0
 11 29  1  0  0  0  0
 11 30  1  0  0  0  0
 12 13  1  0  0  0  0
 12 31  1  0  0  0  0
 12 32  1  0  0  0  0
 13 16  1  0  0  0  0
 13 33  1  0  0  0  0
 13 34  1  0  0  0  0
 17 35  1  0  0  0  0
 17 36  1  0  0  0  0
M  END
>  <Chemgauss4 Score>
-4.81918621063232

>  <Number of Confs>
123

$$$$
