TRY-UNI-714-8
 OpenBabel03242009303D

 32 33  0  0  0  0  0  0  0  0999 V2000
   12.7858    0.1683   22.8705 C   0  0  0  0  0  0  0  0  0  0  0  0
   12.1782   -0.7411   22.0050 C   0  0  0  0  0  0  0  0  0  0  0  0
   12.5042    0.1267   24.2361 C   0  0  0  0  0  0  0  0  0  0  0  0
   11.2887   -1.6922   22.5049 C   0  0  0  0  0  0  0  0  0  0  0  0
   11.6147   -0.8244   24.7360 C   0  0  0  0  0  0  0  0  0  0  0  0
    6.9514   -5.4160   29.1831 C   0  0  0  0  0  0  0  0  0  0  0  0
    8.3809   -3.9353   28.1622 C   0  0  0  0  0  0  0  0  0  0  0  0
    7.2614   -5.5558   26.8292 C   0  0  0  0  0  0  0  0  0  0  0  0
   11.0069   -1.7339   23.8704 C   0  0  0  0  0  0  0  0  0  0  0  0
    6.6488   -6.0358   27.9814 C   0  0  0  0  0  0  0  0  0  0  0  0
    8.1454   -4.4858   26.9127 C   0  0  0  0  0  0  0  0  0  0  0  0
    9.7029   -2.8908   25.7089 C   0  0  0  0  0  0  0  0  0  0  0  0
    6.9711   -6.1883   25.5043 C   0  0  0  0  0  0  0  0  0  0  0  0
    7.8047   -4.3744   29.3036 N   0  0  0  0  0  0  0  0  0  0  0  0
    5.7476   -7.1150   27.9481 N   0  0  0  0  0  0  0  0  0  0  0  0
   10.1173   -2.6854   24.3702 N   0  0  0  0  0  0  0  0  0  0  0  0
    8.7940   -3.9593   25.7708 N   0  0  0  0  0  0  0  0  0  0  0  0
   10.0858   -2.2286   26.6680 O   0  0  0  0  0  0  0  0  0  0  0  0
   13.4791    0.9086   22.4818 H   0  0  0  0  0  0  0  0  0  0  0  0
   12.3979   -0.7095   20.9419 H   0  0  0  0  0  0  0  0  0  0  0  0
   12.9783    0.8344   24.9100 H   0  0  0  0  0  0  0  0  0  0  0  0
   10.8212   -2.3960   21.8208 H   0  0  0  0  0  0  0  0  0  0  0  0
   11.4028   -0.8475   25.8021 H   0  0  0  0  0  0  0  0  0  0  0  0
    6.5049   -5.7455   30.1167 H   0  0  0  0  0  0  0  0  0  0  0  0
    9.0601   -3.0980   28.2918 H   0  0  0  0  0  0  0  0  0  0  0  0
    6.1182   -5.6926   25.0289 H   0  0  0  0  0  0  0  0  0  0  0  0
    7.8369   -6.1170   24.8363 H   0  0  0  0  0  0  0  0  0  0  0  0
    6.7402   -7.2535   25.6192 H   0  0  0  0  0  0  0  0  0  0  0  0
    5.3633   -7.4615   28.8061 H   0  0  0  0  0  0  0  0  0  0  0  0
    5.5740   -7.5840   27.0799 H   0  0  0  0  0  0  0  0  0  0  0  0
    9.7093   -3.3204   23.6761 H   0  0  0  0  0  0  0  0  0  0  0  0
    8.5707   -4.4158   24.8900 H   0  0  0  0  0  0  0  0  0  0  0  0
  1  2  1  0  0  0  0
  1  3  2  0  0  0  0
  1 19  1  0  0  0  0
  2  4  2  0  0  0  0
  2 20  1  0  0  0  0
  3  5  1  0  0  0  0
  3 21  1  0  0  0  0
  4  9  1  0  0  0  0
  4 22  1  0  0  0  0
  5  9  2  0  0  0  0
  5 23  1  0  0  0  0
  6 10  2  0  0  0  0
  6 14  1  0  0  0  0
  6 24  1  0  0  0  0
  7 11  1  0  0  0  0
  7 14  2  0  0  0  0
  7 25  1  0  0  0  0
  8 10  1  0  0  0  0
  8 11  2  0  0  0  0
  8 13  1  0  0  0  0
  9 16  1  0  0  0  0
 10 15  1  0  0  0  0
 11 17  1  0  0  0  0
 12 16  1  0  0  0  0
 12 17  1  0  0  0  0
 12 18  2  0  0  0  0
 13 26  1  0  0  0  0
 13 27  1  0  0  0  0
 13 28  1  0  0  0  0
 15 29  1  0  0  0  0
 15 30  1  0  0  0  0
 16 31  1  0  0  0  0
 17 32  1  0  0  0  0
M  END
>  <Chemgauss4 Score>
-4.83422565460205

>  <Number of Confs>
3

$$$$
