SAL-INS-1c7-2
 OpenBabel03242009303D

 50 53  0  0  1  0  0  0  0  0999 V2000
   13.8801    0.0866   23.3120 C   0  0  0  0  0  0  0  0  0  0  0  0
   13.8308   -0.7062   22.1655 C   0  0  0  0  0  0  0  0  0  0  0  0
   12.7694    0.1680   24.1520 C   0  0  0  0  0  0  0  0  0  0  0  0
    9.4884   -4.3042   25.3819 C   0  0  0  0  0  0  0  0  0  0  0  0
   12.6708   -1.4176   21.8588 C   0  0  0  0  0  0  0  0  0  0  0  0
   11.6095   -0.5434   23.8454 C   0  0  0  0  0  0  0  0  0  0  0  0
   10.1261   -3.7753   24.2606 C   0  0  0  0  0  0  0  0  0  0  0  0
    7.7529   -2.6409   25.1750 C   0  0  0  0  0  0  0  0  0  0  0  0
    5.5130   -6.7761   25.0962 C   0  0  0  0  0  0  0  0  0  0  0  0
    6.5487   -5.9623   23.3294 C   0  0  0  0  0  0  0  0  0  0  0  0
    8.3015   -3.7384   25.8377 C   0  0  0  0  0  0  0  0  0  0  0  0
   11.5601   -1.3362   22.6988 C   0  0  0  0  0  0  0  0  0  0  0  0
    9.5820   -2.6723   23.5826 C   0  0  0  0  0  0  0  0  0  0  0  0
    8.3873   -2.0941   24.0492 C   0  0  0  0  0  0  0  0  0  0  0  0
    6.4087   -5.7936   25.4466 C   0  0  0  0  0  0  0  0  0  0  0  0
    7.6337   -4.2911   27.0054 C   0  0  0  0  0  0  0  0  0  0  0  0
    8.5302    1.0132   21.9031 C   0  0  0  0  0  0  0  0  0  0  0  0
    7.7561   -0.9061   23.3652 C   0  0  0  0  0  0  0  0  0  0  0  0
    9.3379   -1.2844   21.4898 C   0  0  0  0  0  0  0  0  0  0  0  0
   10.2934   -2.1124   22.3645 C   0  0  1  0  0  0  0  0  0  0  0  0
    5.9458   -5.9100   27.9277 C   0  0  0  0  0  0  0  0  0  0  0  0
    7.5945    1.9064   22.6791 C   0  0  0  0  0  0  0  0  0  0  0  0
    7.0500   -5.2908   24.3422 N   0  0  0  0  0  0  0  0  0  0  0  0
    5.6136   -6.8727   23.7368 N   0  0  0  0  0  0  0  0  0  0  0  0
    8.5658   -0.3302   22.2842 N   0  0  0  0  0  0  0  0  0  0  0  0
    6.6722   -5.3219   26.7920 N   0  0  0  0  0  0  0  0  0  0  0  0
    7.8915   -3.8569   28.1366 O   0  0  0  0  0  0  0  0  0  0  0  0
    9.2113    1.4950   20.9946 O   0  0  0  0  0  0  0  0  0  0  0  0
    6.0573    1.8893   21.8227 Cl  0  0  0  0  0  0  0  0  0  0  0  0
   14.7838    0.6394   23.5514 H   0  0  0  0  0  0  0  0  0  0  0  0
   14.6958   -0.7705   21.5119 H   0  0  0  0  0  0  0  0  0  0  0  0
   12.8078    0.7843   25.0454 H   0  0  0  0  0  0  0  0  0  0  0  0
    9.9262   -5.1593   25.8905 H   0  0  0  0  0  0  0  0  0  0  0  0
   12.6414   -2.0326   20.9632 H   0  0  0  0  0  0  0  0  0  0  0  0
   10.7490   -0.4739   24.5056 H   0  0  0  0  0  0  0  0  0  0  0  0
   11.0510   -4.2301   23.9142 H   0  0  0  0  0  0  0  0  0  0  0  0
    6.8247   -2.2010   25.5347 H   0  0  0  0  0  0  0  0  0  0  0  0
    4.8353   -7.3961   25.6658 H   0  0  0  0  0  0  0  0  0  0  0  0
    6.8144   -5.8381   22.2893 H   0  0  0  0  0  0  0  0  0  0  0  0
    6.8054   -1.2142   22.9139 H   0  0  0  0  0  0  0  0  0  0  0  0
    7.5468   -0.1411   24.1181 H   0  0  0  0  0  0  0  0  0  0  0  0
    9.8861   -0.7758   20.6886 H   0  0  0  0  0  0  0  0  0  0  0  0
    8.6069   -1.9451   21.0051 H   0  0  0  0  0  0  0  0  0  0  0  0
   10.6223   -2.9837   21.7338 H   0  0  0  0  0  0  0  0  0  0  0  0
    6.5078   -6.7720   28.3163 H   0  0  0  0  0  0  0  0  0  0  0  0
    5.8349   -5.1567   28.7215 H   0  0  0  0  0  0  0  0  0  0  0  0
    4.9510   -6.2410   27.5947 H   0  0  0  0  0  0  0  0  0  0  0  0
    8.0013    2.9108   22.6948 H   0  0  0  0  0  0  0  0  0  0  0  0
    7.4702    1.5014   23.6765 H   0  0  0  0  0  0  0  0  0  0  0  0
    5.0930   -7.5030   23.1416 H   0  0  0  0  0  0  0  0  0  0  0  0
  1  2  1  0  0  0  0
  1  3  2  0  0  0  0
  1 30  1  0  0  0  0
  2  5  2  0  0  0  0
  2 31  1  0  0  0  0
  3  6  1  0  0  0  0
  3 32  1  0  0  0  0
  4  7  2  0  0  0  0
  4 11  1  0  0  0  0
  4 33  1  0  0  0  0
  5 12  1  0  0  0  0
  5 34  1  0  0  0  0
  6 12  2  0  0  0  0
  6 35  1  0  0  0  0
  7 13  1  0  0  0  0
  7 36  1  0  0  0  0
  8 11  2  0  0  0  0
  8 14  1  0  0  0  0
  8 37  1  0  0  0  0
  9 15  2  0  0  0  0
  9 24  1  0  0  0  0
  9 38  1  0  0  0  0
 10 23  2  0  0  0  0
 10 24  1  0  0  0  0
 10 39  1  0  0  0  0
 11 16  1  0  0  0  0
 12 20  1  0  0  0  0
 13 14  2  0  0  0  0
 13 20  1  0  0  0  0
 14 18  1  0  0  0  0
 15 23  1  0  0  0  0
 15 26  1  0  0  0  0
 16 26  1  0  0  0  0
 16 27  2  0  0  0  0
 17 22  1  0  0  0  0
 17 25  1  0  0  0  0
 17 28  2  0  0  0  0
 18 25  1  0  0  0  0
 18 40  1  0  0  0  0
 18 41  1  0  0  0  0
 19 20  1  0  0  0  0
 19 25  1  0  0  0  0
 19 42  1  0  0  0  0
 19 43  1  0  0  0  0
 20 44  1  6  0  0  0
 21 26  1  0  0  0  0
 21 45  1  0  0  0  0
 21 46  1  0  0  0  0
 21 47  1  0  0  0  0
 22 29  1  0  0  0  0
 22 48  1  0  0  0  0
 22 49  1  0  0  0  0
 24 50  1  0  0  0  0
M  END
>  <Chemgauss4 Score>
-6.97402048110962

>  <Number of Confs>
131

$$$$
