CHR-SOS-6c4-5
 OpenBabel03242009303D

 44 46  0  0  0  0  0  0  0  0999 V2000
   10.0993   -2.5974   24.1157 C   0  0  0  0  0  0  0  0  0  0  0  0
   10.5770   -1.9167   23.2491 C   0  0  0  0  0  0  0  0  0  0  0  0
    9.6921   -5.1662   26.7796 C   0  0  0  0  0  0  0  0  0  0  0  0
   10.2748   -4.3953   25.7799 C   0  0  0  0  0  0  0  0  0  0  0  0
    4.9871    1.3592   19.0038 C   0  0  0  0  0  0  0  0  0  0  0  0
    8.3701   -4.9119   27.1072 C   0  0  0  0  0  0  0  0  0  0  0  0
    4.4787    1.8976   20.1749 C   0  0  0  0  0  0  0  0  0  0  0  0
    8.2134   -3.2321   25.5479 C   0  0  0  0  0  0  0  0  0  0  0  0
    6.3161    1.2330   21.3835 C   0  0  0  0  0  0  0  0  0  0  0  0
    9.5281   -3.4075   25.1473 C   0  0  0  0  0  0  0  0  0  0  0  0
    6.2267    0.7320   19.0603 C   0  0  0  0  0  0  0  0  0  0  0  0
    6.9105    0.6633   20.2690 C   0  0  0  0  0  0  0  0  0  0  0  0
    8.9662   -0.1041   21.5203 C   0  0  0  0  0  0  0  0  0  0  0  0
   13.1574   -0.2195   23.2709 C   0  0  0  0  0  0  0  0  0  0  0  0
   13.5382   -1.4796   22.4946 C   0  0  0  0  0  0  0  0  0  0  0  0
   11.7802    0.1977   22.7571 C   0  0  0  0  0  0  0  0  0  0  0  0
   12.3751   -1.7623   21.5450 C   0  0  0  0  0  0  0  0  0  0  0  0
   11.1621   -1.0815   22.1856 C   0  0  0  0  0  0  0  0  0  0  0  0
    6.7983    0.1422   17.8128 C   0  0  0  0  0  0  0  0  0  0  0  0
    7.6130   -3.9613   26.5150 N   0  0  0  0  0  0  0  0  0  0  0  0
    5.1135    1.8505   21.3676 N   0  0  0  0  0  0  0  0  0  0  0  0
    8.1738    0.0366   20.3776 N   0  0  0  0  0  0  0  0  0  0  0  0
   10.1450   -0.7859   21.2085 N   0  0  0  0  0  0  0  0  0  0  0  0
    8.7001    0.2984   22.6503 O   0  0  0  0  0  0  0  0  0  0  0  0
   10.2541   -5.9424   27.2863 H   0  0  0  0  0  0  0  0  0  0  0  0
   11.3110   -4.5751   25.5048 H   0  0  0  0  0  0  0  0  0  0  0  0
    4.4281    1.4294   18.0769 H   0  0  0  0  0  0  0  0  0  0  0  0
    7.8701   -5.4854   27.8805 H   0  0  0  0  0  0  0  0  0  0  0  0
    3.5156    2.3972   20.1842 H   0  0  0  0  0  0  0  0  0  0  0  0
    7.5766   -2.4783   25.0932 H   0  0  0  0  0  0  0  0  0  0  0  0
    6.8006    1.2121   22.3552 H   0  0  0  0  0  0  0  0  0  0  0  0
   13.1404   -0.3966   24.3514 H   0  0  0  0  0  0  0  0  0  0  0  0
   13.8924    0.5715   23.0809 H   0  0  0  0  0  0  0  0  0  0  0  0
   14.4612   -1.3053   21.9296 H   0  0  0  0  0  0  0  0  0  0  0  0
   13.7201   -2.3283   23.1620 H   0  0  0  0  0  0  0  0  0  0  0  0
   11.1821    0.5776   23.5983 H   0  0  0  0  0  0  0  0  0  0  0  0
   11.8433    1.0126   22.0246 H   0  0  0  0  0  0  0  0  0  0  0  0
   12.5802   -1.4104   20.5263 H   0  0  0  0  0  0  0  0  0  0  0  0
   12.2219   -2.8492   21.4770 H   0  0  0  0  0  0  0  0  0  0  0  0
    7.4056    0.8863   17.2846 H   0  0  0  0  0  0  0  0  0  0  0  0
    7.4282   -0.7272   18.0379 H   0  0  0  0  0  0  0  0  0  0  0  0
    6.0051   -0.2041   17.1387 H   0  0  0  0  0  0  0  0  0  0  0  0
    8.5461   -0.3584   19.5176 H   0  0  0  0  0  0  0  0  0  0  0  0
   10.2916   -1.0864   20.2514 H   0  0  0  0  0  0  0  0  0  0  0  0
  1  2  3  0  0  0  0
  1 10  1  0  0  0  0
  2 18  1  0  0  0  0
  3  4  2  0  0  0  0
  3  6  1  0  0  0  0
  3 25  1  0  0  0  0
  4 10  1  0  0  0  0
  4 26  1  0  0  0  0
  5  7  2  0  0  0  0
  5 11  1  0  0  0  0
  5 27  1  0  0  0  0
  6 20  2  0  0  0  0
  6 28  1  0  0  0  0
  7 21  1  0  0  0  0
  7 29  1  0  0  0  0
  8 10  2  0  0  0  0
  8 20  1  0  0  0  0
  8 30  1  0  0  0  0
  9 12  1  0  0  0  0
  9 21  2  0  0  0  0
  9 31  1  0  0  0  0
 11 12  2  0  0  0  0
 11 19  1  0  0  0  0
 12 22  1  0  0  0  0
 13 22  1  0  0  0  0
 13 23  1  0  0  0  0
 13 24  2  0  0  0  0
 14 15  1  0  0  0  0
 14 16  1  0  0  0  0
 14 32  1  0  0  0  0
 14 33  1  0  0  0  0
 15 17  1  0  0  0  0
 15 34  1  0  0  0  0
 15 35  1  0  0  0  0
 16 18  1  0  0  0  0
 16 36  1  0  0  0  0
 16 37  1  0  0  0  0
 17 18  1  0  0  0  0
 17 38  1  0  0  0  0
 17 39  1  0  0  0  0
 18 23  1  0  0  0  0
 19 40  1  0  0  0  0
 19 41  1  0  0  0  0
 19 42  1  0  0  0  0
 22 43  1  0  0  0  0
 23 44  1  0  0  0  0
M  END
>  <Chemgauss4 Score>
-6.65015077590942

>  <Number of Confs>
7

$$$$
