CHR-SOS-709-4
 OpenBabel03242009303D

 27 28  0  0  0  0  0  0  0  0999 V2000
    5.9787   -4.5766   24.3639 C   0  0  0  0  0  0  0  0  0  0  0  0
    5.9468   -5.3427   25.5290 C   0  0  0  0  0  0  0  0  0  0  0  0
    7.0802   -3.7649   24.0928 C   0  0  0  0  0  0  0  0  0  0  0  0
   12.2934    0.2006   24.4780 C   0  0  0  0  0  0  0  0  0  0  0  0
    7.0164   -5.2971   26.4232 C   0  0  0  0  0  0  0  0  0  0  0  0
   13.1584   -0.0201   23.4062 C   0  0  0  0  0  0  0  0  0  0  0  0
   11.5748   -1.5729   22.4479 C   0  0  0  0  0  0  0  0  0  0  0  0
   10.7099   -1.3522   23.5197 C   0  0  0  0  0  0  0  0  0  0  0  0
    8.1498   -3.7193   24.9869 C   0  0  0  0  0  0  0  0  0  0  0  0
   11.0692   -0.4655   24.5348 C   0  0  0  0  0  0  0  0  0  0  0  0
   12.7991   -0.9068   22.3912 C   0  0  0  0  0  0  0  0  0  0  0  0
    8.1179   -4.4854   26.1521 C   0  0  0  0  0  0  0  0  0  0  0  0
    9.4374   -2.0594   23.5613 C   0  0  0  0  0  0  0  0  0  0  0  0
    9.2537   -2.8840   24.6810 N   0  0  0  0  0  0  0  0  0  0  0  0
    8.6067   -1.9553   22.6495 O   0  0  0  0  0  0  0  0  0  0  0  0
   10.2387   -0.2382   25.5913 O   0  0  0  0  0  0  0  0  0  0  0  0
   13.8655   -1.1775   21.0677 Cl  0  0  0  0  0  0  0  0  0  0  0  0
    9.4191   -4.4566   27.2886 Cl  0  0  0  0  0  0  0  0  0  0  0  0
    5.1454   -4.6121   23.6682 H   0  0  0  0  0  0  0  0  0  0  0  0
    5.0891   -5.9748   25.7395 H   0  0  0  0  0  0  0  0  0  0  0  0
    7.0926   -3.1730   23.1808 H   0  0  0  0  0  0  0  0  0  0  0  0
   12.5790    0.8920   25.2662 H   0  0  0  0  0  0  0  0  0  0  0  0
    6.9760   -5.9005   27.3266 H   0  0  0  0  0  0  0  0  0  0  0  0
   14.1085    0.5068   23.3747 H   0  0  0  0  0  0  0  0  0  0  0  0
   11.2929   -2.2656   21.6577 H   0  0  0  0  0  0  0  0  0  0  0  0
   10.0099   -2.8825   25.3610 H   0  0  0  0  0  0  0  0  0  0  0  0
    9.4293   -0.7646   25.4998 H   0  0  0  0  0  0  0  0  0  0  0  0
  1  2  1  0  0  0  0
  1  3  2  0  0  0  0
  1 19  1  0  0  0  0
  2  5  2  0  0  0  0
  2 20  1  0  0  0  0
  3  9  1  0  0  0  0
  3 21  1  0  0  0  0
  4  6  2  0  0  0  0
  4 10  1  0  0  0  0
  4 22  1  0  0  0  0
  5 12  1  0  0  0  0
  5 23  1  0  0  0  0
  6 11  1  0  0  0  0
  6 24  1  0  0  0  0
  7  8  1  0  0  0  0
  7 11  2  0  0  0  0
  7 25  1  0  0  0  0
  8 10  2  0  0  0  0
  8 13  1  0  0  0  0
  9 12  2  0  0  0  0
  9 14  1  0  0  0  0
 10 16  1  0  0  0  0
 11 17  1  0  0  0  0
 12 18  1  0  0  0  0
 13 14  1  0  0  0  0
 13 15  2  0  0  0  0
 14 26  1  0  0  0  0
 16 27  1  0  0  0  0
M  END
>  <Chemgauss4 Score>
-4.53819465637207

>  <Number of Confs>
8

$$$$
