GIA-UNK-995-6
 OpenBabel03242009303D

 28 28  0  0  0  0  0  0  0  0999 V2000
   11.0833   -1.1474   24.4157 C   0  0  0  0  0  0  0  0  0  0  0  0
    7.9930   -5.1448   25.1441 C   0  0  0  0  0  0  0  0  0  0  0  0
   11.1105   -3.4444   25.3720 C   0  0  0  0  0  0  0  0  0  0  0  0
   10.0725   -3.0140   23.0915 C   0  0  0  0  0  0  0  0  0  0  0  0
    9.6993   -3.5440   25.9484 C   0  0  0  0  0  0  0  0  0  0  0  0
    8.6920   -3.1460   23.7362 C   0  0  0  0  0  0  0  0  0  0  0  0
   11.1637   -2.6100   24.0882 C   0  0  0  0  0  0  0  0  0  0  0  0
    7.0441   -5.5432   24.0419 C   0  0  0  0  0  0  0  0  0  0  0  0
   12.8514   -0.5697   22.4004 C   0  0  0  0  0  0  0  0  0  0  0  0
    8.7536   -3.9962   24.9288 N   0  0  0  0  0  0  0  0  0  0  0  0
   10.9387   -0.7249   25.5566 O   0  0  0  0  0  0  0  0  0  0  0  0
    8.0564   -5.8361   26.1640 O   0  0  0  0  0  0  0  0  0  0  0  0
   12.7607   -1.7416   21.7167 F   0  0  0  0  0  0  0  0  0  0  0  0
   11.2189   -0.0968   23.0061 S   0  0  0  0  0  0  0  0  0  0  0  0
   11.7804   -3.0223   26.1308 H   0  0  0  0  0  0  0  0  0  0  0  0
   11.4750   -4.4565   25.1540 H   0  0  0  0  0  0  0  0  0  0  0  0
   10.3427   -3.9790   22.6436 H   0  0  0  0  0  0  0  0  0  0  0  0
   10.0183   -2.2878   22.2716 H   0  0  0  0  0  0  0  0  0  0  0  0
    9.7012   -4.2224   26.8075 H   0  0  0  0  0  0  0  0  0  0  0  0
    9.3550   -2.5674   26.3078 H   0  0  0  0  0  0  0  0  0  0  0  0
    8.3172   -2.1669   24.0556 H   0  0  0  0  0  0  0  0  0  0  0  0
    7.9859   -3.5282   22.9968 H   0  0  0  0  0  0  0  0  0  0  0  0
   12.1441   -2.7539   23.6172 H   0  0  0  0  0  0  0  0  0  0  0  0
    7.5581   -6.2056   23.3532 H   0  0  0  0  0  0  0  0  0  0  0  0
    6.7111   -4.6517   23.5201 H   0  0  0  0  0  0  0  0  0  0  0  0
    6.1887   -6.0506   24.4760 H   0  0  0  0  0  0  0  0  0  0  0  0
   13.5461   -0.7178   23.2312 H   0  0  0  0  0  0  0  0  0  0  0  0
   13.2471    0.1876   21.7186 H   0  0  0  0  0  0  0  0  0  0  0  0
  1  7  1  0  0  0  0
  1 11  2  0  0  0  0
  1 14  1  0  0  0  0
  2  8  1  0  0  0  0
  2 10  1  0  0  0  0
  2 12  2  0  0  0  0
  3  5  1  0  0  0  0
  3  7  1  0  0  0  0
  3 15  1  0  0  0  0
  3 16  1  0  0  0  0
  4  6  1  0  0  0  0
  4  7  1  0  0  0  0
  4 17  1  0  0  0  0
  4 18  1  0  0  0  0
  5 10  1  0  0  0  0
  5 19  1  0  0  0  0
  5 20  1  0  0  0  0
  6 10  1  0  0  0  0
  6 21  1  0  0  0  0
  6 22  1  0  0  0  0
  7 23  1  0  0  0  0
  8 24  1  0  0  0  0
  8 25  1  0  0  0  0
  8 26  1  0  0  0  0
  9 13  1  0  0  0  0
  9 14  1  0  0  0  0
  9 27  1  0  0  0  0
  9 28  1  0  0  0  0
M  END
>  <Chemgauss4 Score>
-5.49905109405518

>  <Number of Confs>
200

$$$$
