GIA-UNK-995-17
 OpenBabel03242009303D

 33 34  0  0  0  0  0  0  0  0999 V2000
    7.8054   -4.6156   29.3546 C   0  0  0  0  0  0  0  0  0  0  0  0
    7.7095   -3.8917   28.1406 C   0  0  0  0  0  0  0  0  0  0  0  0
    7.7749   -5.9558   29.0378 C   0  0  0  0  0  0  0  0  0  0  0  0
    7.6231   -4.8115   27.1189 C   0  0  0  0  0  0  0  0  0  0  0  0
    7.5064   -4.5656   25.6863 C   0  0  0  0  0  0  0  0  0  0  0  0
   11.3348   -1.8558   23.6653 C   0  0  0  0  0  0  0  0  0  0  0  0
   10.4545   -2.5322   25.8970 C   0  0  0  0  0  0  0  0  0  0  0  0
    8.9031   -1.6057   24.1042 C   0  0  0  0  0  0  0  0  0  0  0  0
    9.9054   -3.9269   25.5952 C   0  0  0  0  0  0  0  0  0  0  0  0
    8.4163   -3.0319   23.8522 C   0  0  0  0  0  0  0  0  0  0  0  0
   10.2955   -1.5553   24.7328 C   0  0  0  0  0  0  0  0  0  0  0  0
   13.0571   -1.1784   21.6413 C   0  0  0  0  0  0  0  0  0  0  0  0
    7.6636   -6.0629   27.6761 N   0  0  0  0  0  0  0  0  0  0  0  0
    8.5437   -3.8438   25.0682 N   0  0  0  0  0  0  0  0  0  0  0  0
    6.5291   -4.9852   25.0641 O   0  0  0  0  0  0  0  0  0  0  0  0
   11.7594   -2.9836   23.4446 O   0  0  0  0  0  0  0  0  0  0  0  0
   14.0586   -1.7617   22.3526 F   0  0  0  0  0  0  0  0  0  0  0  0
   11.8687   -0.4307   22.7745 S   0  0  0  0  0  0  0  0  0  0  0  0
    7.8863   -4.2049   30.3511 H   0  0  0  0  0  0  0  0  0  0  0  0
    7.7044   -2.8161   28.0281 H   0  0  0  0  0  0  0  0  0  0  0  0
    7.8192   -6.8403   29.6575 H   0  0  0  0  0  0  0  0  0  0  0  0
    9.9195   -2.1307   26.7675 H   0  0  0  0  0  0  0  0  0  0  0  0
   11.5087   -2.6165   26.1878 H   0  0  0  0  0  0  0  0  0  0  0  0
    8.8891   -1.0485   23.1597 H   0  0  0  0  0  0  0  0  0  0  0  0
    8.1928   -1.1073   24.7765 H   0  0  0  0  0  0  0  0  0  0  0  0
   10.5206   -4.4302   24.8403 H   0  0  0  0  0  0  0  0  0  0  0  0
    9.9372   -4.5399   26.5015 H   0  0  0  0  0  0  0  0  0  0  0  0
    7.3853   -3.0031   23.4907 H   0  0  0  0  0  0  0  0  0  0  0  0
    9.0137   -3.5169   23.0717 H   0  0  0  0  0  0  0  0  0  0  0  0
   10.5050   -0.5462   25.0680 H   0  0  0  0  0  0  0  0  0  0  0  0
   13.5032   -0.4214   20.9911 H   0  0  0  0  0  0  0  0  0  0  0  0
   12.5809   -1.9526   21.0342 H   0  0  0  0  0  0  0  0  0  0  0  0
    7.6183   -6.9332   27.1637 H   0  0  0  0  0  0  0  0  0  0  0  0
  1  2  1  0  0  0  0
  1  3  2  0  0  0  0
  1 19  1  0  0  0  0
  2  4  2  0  0  0  0
  2 20  1  0  0  0  0
  3 13  1  0  0  0  0
  3 21  1  0  0  0  0
  4  5  1  0  0  0  0
  4 13  1  0  0  0  0
  5 14  1  0  0  0  0
  5 15  2  0  0  0  0
  6 11  1  0  0  0  0
  6 16  2  0  0  0  0
  6 18  1  0  0  0  0
  7  9  1  0  0  0  0
  7 11  1  0  0  0  0
  7 22  1  0  0  0  0
  7 23  1  0  0  0  0
  8 10  1  0  0  0  0
  8 11  1  0  0  0  0
  8 24  1  0  0  0  0
  8 25  1  0  0  0  0
  9 14  1  0  0  0  0
  9 26  1  0  0  0  0
  9 27  1  0  0  0  0
 10 14  1  0  0  0  0
 10 28  1  0  0  0  0
 10 29  1  0  0  0  0
 11 30  1  0  0  0  0
 12 17  1  0  0  0  0
 12 18  1  0  0  0  0
 12 31  1  0  0  0  0
 12 32  1  0  0  0  0
 13 33  1  0  0  0  0
M  END
>  <Chemgauss4 Score>
-5.95411777496338

>  <Number of Confs>
200

$$$$
