TRY-UNI-714-2
 OpenBabel03242009303D

 33 34  0  0  0  0  0  0  0  0999 V2000
   13.5872   -1.1007   22.3054 C   0  0  0  0  0  0  0  0  0  0  0  0
   13.7170   -0.0973   23.2656 C   0  0  0  0  0  0  0  0  0  0  0  0
   12.3340   -1.6515   22.0373 C   0  0  0  0  0  0  0  0  0  0  0  0
   12.5937    0.3552   23.9577 C   0  0  0  0  0  0  0  0  0  0  0  0
   11.2107   -1.1990   22.7295 C   0  0  0  0  0  0  0  0  0  0  0  0
    8.7870   -4.7416   28.2786 C   0  0  0  0  0  0  0  0  0  0  0  0
    9.2499   -2.5566   27.7403 C   0  0  0  0  0  0  0  0  0  0  0  0
   11.3405   -0.1956   23.6897 C   0  0  0  0  0  0  0  0  0  0  0  0
    9.1449   -4.1715   25.9975 C   0  0  0  0  0  0  0  0  0  0  0  0
    8.8601   -5.1400   26.9536 C   0  0  0  0  0  0  0  0  0  0  0  0
    9.3449   -2.8527   26.3901 C   0  0  0  0  0  0  0  0  0  0  0  0
    9.8555   -0.4792   25.7188 C   0  0  0  0  0  0  0  0  0  0  0  0
    9.2362   -4.5465   24.5515 C   0  0  0  0  0  0  0  0  0  0  0  0
   10.1391    0.2876   24.4296 C   0  0  0  0  0  0  0  0  0  0  0  0
    8.9752   -3.4703   28.6981 N   0  0  0  0  0  0  0  0  0  0  0  0
    8.6498   -6.4865   26.6060 N   0  0  0  0  0  0  0  0  0  0  0  0
    9.6363   -1.8293   25.4570 N   0  0  0  0  0  0  0  0  0  0  0  0
    9.8354    0.0785   26.8114 O   0  0  0  0  0  0  0  0  0  0  0  0
   14.4617   -1.4520   21.7656 H   0  0  0  0  0  0  0  0  0  0  0  0
   14.6925    0.3325   23.4737 H   0  0  0  0  0  0  0  0  0  0  0  0
   12.2323   -2.4320   21.2890 H   0  0  0  0  0  0  0  0  0  0  0  0
   12.7044    1.1372   24.7043 H   0  0  0  0  0  0  0  0  0  0  0  0
   10.2384   -1.6341   22.5141 H   0  0  0  0  0  0  0  0  0  0  0  0
    8.5682   -5.4517   29.0706 H   0  0  0  0  0  0  0  0  0  0  0  0
    9.3952   -1.5454   28.1086 H   0  0  0  0  0  0  0  0  0  0  0  0
    8.2540   -4.4556   24.0760 H   0  0  0  0  0  0  0  0  0  0  0  0
    9.9452   -3.9004   24.0217 H   0  0  0  0  0  0  0  0  0  0  0  0
    9.5903   -5.5771   24.4342 H   0  0  0  0  0  0  0  0  0  0  0  0
   10.2500    1.3543   24.6852 H   0  0  0  0  0  0  0  0  0  0  0  0
    9.2443    0.2222   23.7889 H   0  0  0  0  0  0  0  0  0  0  0  0
    8.4935   -7.1624   27.3289 H   0  0  0  0  0  0  0  0  0  0  0  0
    8.7521   -6.7693   25.6503 H   0  0  0  0  0  0  0  0  0  0  0  0
    9.6922   -2.1130   24.4811 H   0  0  0  0  0  0  0  0  0  0  0  0
  1  2  1  0  0  0  0
  1  3  2  0  0  0  0
  1 19  1  0  0  0  0
  2  4  2  0  0  0  0
  2 20  1  0  0  0  0
  3  5  1  0  0  0  0
  3 21  1  0  0  0  0
  4  8  1  0  0  0  0
  4 22  1  0  0  0  0
  5  8  2  0  0  0  0
  5 23  1  0  0  0  0
  6 10  2  0  0  0  0
  6 15  1  0  0  0  0
  6 24  1  0  0  0  0
  7 11  1  0  0  0  0
  7 15  2  0  0  0  0
  7 25  1  0  0  0  0
  8 14  1  0  0  0  0
  9 10  1  0  0  0  0
  9 11  2  0  0  0  0
  9 13  1  0  0  0  0
 10 16  1  0  0  0  0
 11 17  1  0  0  0  0
 12 14  1  0  0  0  0
 12 17  1  0  0  0  0
 12 18  2  0  0  0  0
 13 26  1  0  0  0  0
 13 27  1  0  0  0  0
 13 28  1  0  0  0  0
 14 29  1  0  0  0  0
 14 30  1  0  0  0  0
 16 31  1  0  0  0  0
 16 32  1  0  0  0  0
 17 33  1  0  0  0  0
M  END
>  <Chemgauss4 Score>
-6.30341720581055

>  <Number of Confs>
10

$$$$
