DUN-NEW-d83-1
 OpenBabel03242009303D

 40 42  0  0  1  0  0  0  0  0999 V2000
    7.8785   -5.4905   29.0149 C   0  0  0  0  0  0  0  0  0  0  0  0
    7.1633   -6.0061   27.9341 C   0  0  0  0  0  0  0  0  0  0  0  0
    8.7379   -4.4075   28.8296 C   0  0  0  0  0  0  0  0  0  0  0  0
   13.0145   -1.2075   23.1050 C   0  0  0  0  0  0  0  0  0  0  0  0
    7.3075   -5.4389   26.6679 C   0  0  0  0  0  0  0  0  0  0  0  0
    8.8822   -3.8403   27.5635 C   0  0  0  0  0  0  0  0  0  0  0  0
   11.8392   -1.8632   22.7558 C   0  0  0  0  0  0  0  0  0  0  0  0
   12.9097   -0.0232   23.8164 C   0  0  0  0  0  0  0  0  0  0  0  0
   10.6149   -0.1328   23.8344 C   0  0  0  0  0  0  0  0  0  0  0  0
    8.1670   -4.3560   26.4826 C   0  0  0  0  0  0  0  0  0  0  0  0
   10.6122   -1.3222   23.1236 C   0  0  0  0  0  0  0  0  0  0  0  0
    7.1391   -4.9549   23.2424 C   0  0  0  0  0  0  0  0  0  0  0  0
    8.6552   -2.2379   25.0849 C   0  0  0  0  0  0  0  0  0  0  0  0
    7.0425   -2.4845   23.4243 C   0  0  0  0  0  0  0  0  0  0  0  0
    8.3249   -3.7373   25.1026 C   0  0  2  0  0  0  0  0  0  0  0  0
    7.0757   -3.8043   24.2025 C   0  0  2  0  0  0  0  0  0  0  0  0
    9.3256   -2.0065   22.7622 C   0  0  0  0  0  0  0  0  0  0  0  0
   11.7360    0.5331   24.1914 N   0  0  0  0  0  0  0  0  0  0  0  0
    8.2770   -1.7570   23.7500 N   0  0  0  0  0  0  0  0  0  0  0  0
    5.9058   -5.4041   22.8330 N   0  0  0  0  0  0  0  0  0  0  0  0
    8.2065   -5.4257   22.8573 O   0  0  0  0  0  0  0  0  0  0  0  0
    7.7651   -5.9314   30.0009 H   0  0  0  0  0  0  0  0  0  0  0  0
    6.4932   -6.8486   28.0783 H   0  0  0  0  0  0  0  0  0  0  0  0
    9.2941   -4.0051   29.6710 H   0  0  0  0  0  0  0  0  0  0  0  0
   13.9821   -1.6108   22.8291 H   0  0  0  0  0  0  0  0  0  0  0  0
    6.7464   -5.8474   25.8316 H   0  0  0  0  0  0  0  0  0  0  0  0
    9.5542   -2.9969   27.4285 H   0  0  0  0  0  0  0  0  0  0  0  0
   11.8888   -2.7943   22.1979 H   0  0  0  0  0  0  0  0  0  0  0  0
   13.7971    0.5266   24.1123 H   0  0  0  0  0  0  0  0  0  0  0  0
    9.6880    0.3369   24.1488 H   0  0  0  0  0  0  0  0  0  0  0  0
    8.1410   -1.6659   25.8758 H   0  0  0  0  0  0  0  0  0  0  0  0
    9.7413   -2.1127   25.2456 H   0  0  0  0  0  0  0  0  0  0  0  0
    6.9563   -2.6701   22.3263 H   0  0  0  0  0  0  0  0  0  0  0  0
    6.1431   -1.8880   23.6997 H   0  0  0  0  0  0  0  0  0  0  0  0
    9.1871   -4.2871   24.6121 H   0  0  0  0  0  0  0  0  0  0  0  0
    6.1481   -3.9145   24.7890 H   0  0  0  0  0  0  0  0  0  0  0  0
    8.9626   -1.6573   21.7894 H   0  0  0  0  0  0  0  0  0  0  0  0
    9.4643   -3.0902   22.6876 H   0  0  0  0  0  0  0  0  0  0  0  0
    5.0760   -4.9451   23.1939 H   0  0  0  0  0  0  0  0  0  0  0  0
    5.7922   -6.1763   22.1843 H   0  0  0  0  0  0  0  0  0  0  0  0
  1  2  1  0  0  0  0
  1  3  2  0  0  0  0
  1 22  1  0  0  0  0
  2  5  2  0  0  0  0
  2 23  1  0  0  0  0
  3  6  1  0  0  0  0
  3 24  1  0  0  0  0
  4  7  2  0  0  0  0
  4  8  1  0  0  0  0
  4 25  1  0  0  0  0
  5 10  1  0  0  0  0
  5 26  1  0  0  0  0
  6 10  2  0  0  0  0
  6 27  1  0  0  0  0
  7 11  1  0  0  0  0
  7 28  1  0  0  0  0
  8 18  2  0  0  0  0
  8 29  1  0  0  0  0
  9 11  2  0  0  0  0
  9 18  1  0  0  0  0
  9 30  1  0  0  0  0
 10 15  1  0  0  0  0
 11 17  1  0  0  0  0
 12 16  1  0  0  0  0
 12 20  1  0  0  0  0
 12 21  2  0  0  0  0
 13 15  1  0  0  0  0
 13 19  1  0  0  0  0
 13 31  1  0  0  0  0
 13 32  1  0  0  0  0
 14 16  1  0  0  0  0
 14 19  1  0  0  0  0
 14 33  1  0  0  0  0
 14 34  1  0  0  0  0
 15 16  1  0  0  0  0
 15 35  1  6  0  0  0
 16 36  1  1  0  0  0
 17 19  1  0  0  0  0
 17 37  1  0  0  0  0
 17 38  1  0  0  0  0
 20 39  1  0  0  0  0
 20 40  1  0  0  0  0
M  END
>  <Chemgauss4 Score>
-5.20648002624512

>  <Number of Confs>
124

$$$$
