ANT-DIA-b7f-1
 OpenBabel03242009303D

 25 25  0  0  0  0  0  0  0  0999 V2000
   12.2886   -1.3491   22.6604 C   0  0  0  0  0  0  0  0  0  0  0  0
   11.0710   -1.9776   22.4243 C   0  0  0  0  0  0  0  0  0  0  0  0
   12.2795   -0.1704   23.3887 C   0  0  0  0  0  0  0  0  0  0  0  0
    9.9960   -0.2346   23.6336 C   0  0  0  0  0  0  0  0  0  0  0  0
    9.8981   -1.4162   22.9166 C   0  0  0  0  0  0  0  0  0  0  0  0
    7.7083   -5.3436   25.8251 C   0  0  0  0  0  0  0  0  0  0  0  0
    8.5613   -2.0742   22.6779 C   0  0  0  0  0  0  0  0  0  0  0  0
    8.1827   -3.0680   23.7732 C   0  0  0  0  0  0  0  0  0  0  0  0
   11.1606    0.4051   23.8831 N   0  0  0  0  0  0  0  0  0  0  0  0
    9.1717   -4.1508   23.9211 N   0  0  0  0  0  0  0  0  0  0  0  0
    9.8002   -3.8861   26.4170 O   0  0  0  0  0  0  0  0  0  0  0  0
   10.1410   -6.1064   25.2721 O   0  0  0  0  0  0  0  0  0  0  0  0
    9.3839   -4.8820   25.4491 S   0  0  0  0  0  0  0  0  0  0  0  0
   13.2155   -1.7687   22.2865 H   0  0  0  0  0  0  0  0  0  0  0  0
   11.0457   -2.9037   21.8564 H   0  0  0  0  0  0  0  0  0  0  0  0
   13.2031    0.3585   23.5996 H   0  0  0  0  0  0  0  0  0  0  0  0
    9.1149    0.2502   24.0424 H   0  0  0  0  0  0  0  0  0  0  0  0
    7.6967   -5.8340   26.7998 H   0  0  0  0  0  0  0  0  0  0  0  0
    7.0982   -4.4393   25.8447 H   0  0  0  0  0  0  0  0  0  0  0  0
    7.3568   -6.0257   25.0496 H   0  0  0  0  0  0  0  0  0  0  0  0
    8.5972   -2.5948   21.7126 H   0  0  0  0  0  0  0  0  0  0  0  0
    7.7827   -1.3072   22.5783 H   0  0  0  0  0  0  0  0  0  0  0  0
    8.1286   -2.5558   24.7391 H   0  0  0  0  0  0  0  0  0  0  0  0
    7.2106   -3.5329   23.5785 H   0  0  0  0  0  0  0  0  0  0  0  0
    9.2462   -4.7631   23.0983 H   0  0  0  0  0  0  0  0  0  0  0  0
  1  2  2  0  0  0  0
  1  3  1  0  0  0  0
  1 14  1  0  0  0  0
  2  5  1  0  0  0  0
  2 15  1  0  0  0  0
  3  9  2  0  0  0  0
  3 16  1  0  0  0  0
  4  5  2  0  0  0  0
  4  9  1  0  0  0  0
  4 17  1  0  0  0  0
  5  7  1  0  0  0  0
  6 13  1  0  0  0  0
  6 18  1  0  0  0  0
  6 19  1  0  0  0  0
  6 20  1  0  0  0  0
  7  8  1  0  0  0  0
  7 21  1  0  0  0  0
  7 22  1  0  0  0  0
  8 10  1  0  0  0  0
  8 23  1  0  0  0  0
  8 24  1  0  0  0  0
 10 13  1  0  0  0  0
 10 25  1  0  0  0  0
 11 13  2  0  0  0  0
 12 13  2  0  0  0  0
M  END
>  <Chemgauss4 Score>
-4.70602369308472

>  <Number of Confs>
166

$$$$
