DUN-NEW-f8c-21
 OpenBabel03242009303D

 39 40  0  0  0  0  0  0  0  0999 V2000
   10.6881   -4.8823   25.9727 C   0  0  0  0  0  0  0  0  0  0  0  0
   10.7363   -3.5090   25.7065 C   0  0  0  0  0  0  0  0  0  0  0  0
    9.6193   -5.6579   25.5279 C   0  0  0  0  0  0  0  0  0  0  0  0
    8.2173   -1.6096   23.8605 C   0  0  0  0  0  0  0  0  0  0  0  0
    9.6870   -2.9127   24.9794 C   0  0  0  0  0  0  0  0  0  0  0  0
    8.5672   -5.0884   24.8050 C   0  0  0  0  0  0  0  0  0  0  0  0
    9.4137   -1.5872   24.5397 C   0  0  0  0  0  0  0  0  0  0  0  0
    8.6288   -3.7145   24.5463 C   0  0  0  0  0  0  0  0  0  0  0  0
   12.8598   -0.6961   22.7094 C   0  0  0  0  0  0  0  0  0  0  0  0
    5.6473   -6.0358   26.0545 C   0  0  0  0  0  0  0  0  0  0  0  0
   13.4464   -1.6636   21.7358 C   0  0  0  0  0  0  0  0  0  0  0  0
   10.2553   -0.3949   24.7667 C   0  0  0  0  0  0  0  0  0  0  0  0
    7.4381   -5.9483   24.3435 C   0  0  0  0  0  0  0  0  0  0  0  0
    5.0909   -6.8956   27.1606 C   0  0  0  0  0  0  0  0  0  0  0  0
   10.7155    0.3037   23.4743 C   0  0  0  0  0  0  0  0  0  0  0  0
    7.7515   -2.8970   23.8701 N   0  0  0  0  0  0  0  0  0  0  0  0
    6.7581   -6.5919   25.4383 N   0  0  0  0  0  0  0  0  0  0  0  0
   11.4821   -0.5714   22.6285 N   0  0  0  0  0  0  0  0  0  0  0  0
   13.5960   -0.0992   23.4862 O   0  0  0  0  0  0  0  0  0  0  0  0
    5.1324   -4.9626   25.7456 O   0  0  0  0  0  0  0  0  0  0  0  0
    5.8925   -6.4289   28.6687 Cl  0  0  0  0  0  0  0  0  0  0  0  0
   11.4945   -5.3475   26.5337 H   0  0  0  0  0  0  0  0  0  0  0  0
   11.5768   -2.9189   26.0604 H   0  0  0  0  0  0  0  0  0  0  0  0
    9.6106   -6.7223   25.7518 H   0  0  0  0  0  0  0  0  0  0  0  0
    7.6547   -0.8266   23.3714 H   0  0  0  0  0  0  0  0  0  0  0  0
   13.7195   -1.1862   20.7810 H   0  0  0  0  0  0  0  0  0  0  0  0
   14.3762   -2.1231   22.1079 H   0  0  0  0  0  0  0  0  0  0  0  0
   12.7955   -2.5091   21.4612 H   0  0  0  0  0  0  0  0  0  0  0  0
   11.1599   -0.6724   25.3430 H   0  0  0  0  0  0  0  0  0  0  0  0
    9.7370    0.3486   25.4054 H   0  0  0  0  0  0  0  0  0  0  0  0
    6.6927   -5.3592   23.7917 H   0  0  0  0  0  0  0  0  0  0  0  0
    7.7859   -6.7378   23.6637 H   0  0  0  0  0  0  0  0  0  0  0  0
    4.0121   -6.7734   27.2851 H   0  0  0  0  0  0  0  0  0  0  0  0
    5.3093   -7.9459   26.9491 H   0  0  0  0  0  0  0  0  0  0  0  0
    9.8579    0.6417   22.8841 H   0  0  0  0  0  0  0  0  0  0  0  0
   11.3392    1.1749   23.7000 H   0  0  0  0  0  0  0  0  0  0  0  0
    6.8883   -3.2020   23.4419 H   0  0  0  0  0  0  0  0  0  0  0  0
    7.1057   -7.4878   25.7718 H   0  0  0  0  0  0  0  0  0  0  0  0
   10.9866   -1.1283   21.9341 H   0  0  0  0  0  0  0  0  0  0  0  0
  1  2  2  0  0  0  0
  1  3  1  0  0  0  0
  1 22  1  0  0  0  0
  2  5  1  0  0  0  0
  2 23  1  0  0  0  0
  3  6  2  0  0  0  0
  3 24  1  0  0  0  0
  4  7  2  0  0  0  0
  4 16  1  0  0  0  0
  4 25  1  0  0  0  0
  5  7  1  0  0  0  0
  5  8  2  0  0  0  0
  6  8  1  0  0  0  0
  6 13  1  0  0  0  0
  7 12  1  0  0  0  0
  8 16  1  0  0  0  0
  9 11  1  0  0  0  0
  9 18  1  0  0  0  0
  9 19  2  0  0  0  0
 10 14  1  0  0  0  0
 10 17  1  0  0  0  0
 10 20  2  0  0  0  0
 11 26  1  0  0  0  0
 11 27  1  0  0  0  0
 11 28  1  0  0  0  0
 12 15  1  0  0  0  0
 12 29  1  0  0  0  0
 12 30  1  0  0  0  0
 13 17  1  0  0  0  0
 13 31  1  0  0  0  0
 13 32  1  0  0  0  0
 14 21  1  0  0  0  0
 14 33  1  0  0  0  0
 14 34  1  0  0  0  0
 15 18  1  0  0  0  0
 15 35  1  0  0  0  0
 15 36  1  0  0  0  0
 16 37  1  0  0  0  0
 17 38  1  0  0  0  0
 18 39  1  0  0  0  0
M  END
>  <Chemgauss4 Score>
-4.68764305114746

>  <Number of Confs>
200

$$$$
