DAR-DIA-43a-13
 OpenBabel03242009303D

 47 49  0  0  1  0  0  0  0  0999 V2000
    9.9894   -5.2883   27.9558 C   0  0  0  0  0  0  0  0  0  0  0  0
   14.1908   -1.0736   21.9254 C   0  0  0  0  0  0  0  0  0  0  0  0
   10.1014   -5.2835   26.5655 C   0  0  0  0  0  0  0  0  0  0  0  0
   12.8236   -1.2436   21.7376 C   0  0  0  0  0  0  0  0  0  0  0  0
    9.4170   -4.1993   28.6133 C   0  0  0  0  0  0  0  0  0  0  0  0
    9.0688   -3.1005   26.4900 C   0  0  0  0  0  0  0  0  0  0  0  0
   14.6105   -0.3971   23.0593 C   0  0  0  0  0  0  0  0  0  0  0  0
   12.4515   -0.0776   23.7768 C   0  0  0  0  0  0  0  0  0  0  0  0
    9.6411   -4.1895   25.8326 C   0  0  0  0  0  0  0  0  0  0  0  0
   11.9305   -0.7390   22.6763 C   0  0  0  0  0  0  0  0  0  0  0  0
    8.9568   -3.1054   27.8804 C   0  0  0  0  0  0  0  0  0  0  0  0
   10.6270   -3.0626   23.8097 C   0  0  0  0  0  0  0  0  0  0  0  0
    9.9244   -2.1550   23.1202 C   0  0  0  0  0  0  0  0  0  0  0  0
    7.2010   -4.3419   24.2297 C   0  0  0  0  0  0  0  0  0  0  0  0
    8.4727   -2.5130   23.0475 C   0  0  0  0  0  0  0  0  0  0  0  0
    9.7643   -4.1844   24.3218 C   0  0  2  0  0  0  0  0  0  0  0  0
    8.4631   -3.9748   23.5109 C   0  0  1  0  0  0  0  0  0  0  0  0
   10.4418   -0.9076   22.5017 C   0  0  0  0  0  0  0  0  0  0  0  0
    6.1781   -6.0916   26.8544 C   0  0  0  0  0  0  0  0  0  0  0  0
    6.0242   -6.2249   25.3487 C   0  0  0  0  0  0  0  0  0  0  0  0
   13.7731    0.1071   23.9932 N   0  0  0  0  0  0  0  0  0  0  0  0
    5.0702   -6.6696   27.5665 N   0  0  0  0  0  0  0  0  0  0  0  0
    7.1490   -5.6612   24.6374 N   0  0  0  0  0  0  0  0  0  0  0  0
    6.3360   -3.4916   24.4045 O   0  0  0  0  0  0  0  0  0  0  0  0
    8.2519   -1.7616   28.6922 Cl  0  0  0  0  0  0  0  0  0  0  0  0
   10.3480   -6.1403   28.5262 H   0  0  0  0  0  0  0  0  0  0  0  0
   14.9053   -1.4587   21.2069 H   0  0  0  0  0  0  0  0  0  0  0  0
   10.5488   -6.1362   26.0616 H   0  0  0  0  0  0  0  0  0  0  0  0
   12.4635   -1.7701   20.8580 H   0  0  0  0  0  0  0  0  0  0  0  0
    9.3365   -4.2168   29.6974 H   0  0  0  0  0  0  0  0  0  0  0  0
    8.7110   -2.2502   25.9140 H   0  0  0  0  0  0  0  0  0  0  0  0
   15.6665   -0.2381   23.2514 H   0  0  0  0  0  0  0  0  0  0  0  0
   11.8035    0.3375   24.5425 H   0  0  0  0  0  0  0  0  0  0  0  0
   11.7024   -3.0219   23.9463 H   0  0  0  0  0  0  0  0  0  0  0  0
    7.8647   -1.8658   23.6873 H   0  0  0  0  0  0  0  0  0  0  0  0
    8.1199   -2.4244   22.0146 H   0  0  0  0  0  0  0  0  0  0  0  0
   10.2407   -5.1335   24.0309 H   0  0  0  0  0  0  0  0  0  0  0  0
    8.4916   -4.6552   22.6021 H   0  0  0  0  0  0  0  0  0  0  0  0
    9.9274   -0.0387   22.9349 H   0  0  0  0  0  0  0  0  0  0  0  0
   10.1899   -0.8963   21.4327 H   0  0  0  0  0  0  0  0  0  0  0  0
    6.2498   -5.0421   27.1572 H   0  0  0  0  0  0  0  0  0  0  0  0
    7.0810   -6.6128   27.1876 H   0  0  0  0  0  0  0  0  0  0  0  0
    5.9616   -7.2803   25.0662 H   0  0  0  0  0  0  0  0  0  0  0  0
    5.1220   -5.7165   24.9935 H   0  0  0  0  0  0  0  0  0  0  0  0
    4.3943   -7.0079   26.9123 H   0  0  0  0  0  0  0  0  0  0  0  0
    5.3970   -7.4270   28.1311 H   0  0  0  0  0  0  0  0  0  0  0  0
    7.9392   -6.2636   24.4272 H   0  0  0  0  0  0  0  0  0  0  0  0
  1  3  2  0  0  0  0
  1  5  1  0  0  0  0
  1 26  1  0  0  0  0
  2  4  2  0  0  0  0
  2  7  1  0  0  0  0
  2 27  1  0  0  0  0
  3  9  1  0  0  0  0
  3 28  1  0  0  0  0
  4 10  1  0  0  0  0
  4 29  1  0  0  0  0
  5 11  2  0  0  0  0
  5 30  1  0  0  0  0
  6  9  2  0  0  0  0
  6 11  1  0  0  0  0
  6 31  1  0  0  0  0
  7 21  2  0  0  0  0
  7 32  1  0  0  0  0
  8 10  2  0  0  0  0
  8 21  1  0  0  0  0
  8 33  1  0  0  0  0
  9 16  1  0  0  0  0
 10 18  1  0  0  0  0
 11 25  1  0  0  0  0
 12 13  2  0  0  0  0
 12 16  1  0  0  0  0
 12 34  1  0  0  0  0
 13 15  1  0  0  0  0
 13 18  1  0  0  0  0
 14 17  1  0  0  0  0
 14 23  1  0  0  0  0
 14 24  2  0  0  0  0
 15 17  1  0  0  0  0
 15 35  1  0  0  0  0
 15 36  1  0  0  0  0
 16 17  1  0  0  0  0
 16 37  1  6  0  0  0
 17 38  1  6  0  0  0
 18 39  1  0  0  0  0
 18 40  1  0  0  0  0
 19 20  1  0  0  0  0
 19 22  1  0  0  0  0
 19 41  1  0  0  0  0
 19 42  1  0  0  0  0
 20 23  1  0  0  0  0
 20 43  1  0  0  0  0
 20 44  1  0  0  0  0
 22 45  1  0  0  0  0
 22 46  1  0  0  0  0
 23 47  1  0  0  0  0
M  END
>  <Chemgauss4 Score>
-4.85409355163574

>  <Number of Confs>
200

$$$$
