CHR-SOS-709-10
 OpenBabel03242009303D

 26 27  0  0  0  0  0  0  0  0999 V2000
    7.2568   -5.7960   26.0080 C   0  0  0  0  0  0  0  0  0  0  0  0
    6.5609   -6.1048   24.8393 C   0  0  0  0  0  0  0  0  0  0  0  0
   12.9744   -0.7251   22.7218 C   0  0  0  0  0  0  0  0  0  0  0  0
    7.4814   -4.1421   23.7726 C   0  0  0  0  0  0  0  0  0  0  0  0
   12.8999    0.3587   23.5818 C   0  0  0  0  0  0  0  0  0  0  0  0
   11.0581   -0.5027   24.6513 C   0  0  0  0  0  0  0  0  0  0  0  0
    8.1772   -3.8332   24.9414 C   0  0  0  0  0  0  0  0  0  0  0  0
   11.0461   -1.6268   23.8412 C   0  0  0  0  0  0  0  0  0  0  0  0
    8.0649   -4.6601   26.0591 C   0  0  0  0  0  0  0  0  0  0  0  0
    6.6732   -5.2779   23.7216 C   0  0  0  0  0  0  0  0  0  0  0  0
   12.0261   -1.7325   22.8605 C   0  0  0  0  0  0  0  0  0  0  0  0
    9.0136   -2.6415   24.9748 C   0  0  0  0  0  0  0  0  0  0  0  0
   11.9628    0.4963   24.5464 N   0  0  0  0  0  0  0  0  0  0  0  0
   10.0525   -2.6197   24.0326 N   0  0  0  0  0  0  0  0  0  0  0  0
    8.8281   -1.7411   25.8037 O   0  0  0  0  0  0  0  0  0  0  0  0
    8.7351   -4.3742   27.2109 O   0  0  0  0  0  0  0  0  0  0  0  0
    5.8163   -5.6601   22.2788 Cl  0  0  0  0  0  0  0  0  0  0  0  0
   12.0998   -3.0922   21.8000 Cl  0  0  0  0  0  0  0  0  0  0  0  0
    7.1650   -6.4436   26.8758 H   0  0  0  0  0  0  0  0  0  0  0  0
    5.9361   -6.9937   24.8136 H   0  0  0  0  0  0  0  0  0  0  0  0
   13.7544   -0.7715   21.9690 H   0  0  0  0  0  0  0  0  0  0  0  0
    7.5697   -3.4951   22.9023 H   0  0  0  0  0  0  0  0  0  0  0  0
   13.6166    1.1709   23.5153 H   0  0  0  0  0  0  0  0  0  0  0  0
   10.3196   -0.3629   25.4350 H   0  0  0  0  0  0  0  0  0  0  0  0
   10.0988   -3.4193   23.4058 H   0  0  0  0  0  0  0  0  0  0  0  0
    9.2539   -3.5619   27.1032 H   0  0  0  0  0  0  0  0  0  0  0  0
  1  2  2  0  0  0  0
  1  9  1  0  0  0  0
  1 19  1  0  0  0  0
  2 10  1  0  0  0  0
  2 20  1  0  0  0  0
  3  5  2  0  0  0  0
  3 11  1  0  0  0  0
  3 21  1  0  0  0  0
  4  7  1  0  0  0  0
  4 10  2  0  0  0  0
  4 22  1  0  0  0  0
  5 13  1  0  0  0  0
  5 23  1  0  0  0  0
  6  8  1  0  0  0  0
  6 13  2  0  0  0  0
  6 24  1  0  0  0  0
  7  9  2  0  0  0  0
  7 12  1  0  0  0  0
  8 11  2  0  0  0  0
  8 14  1  0  0  0  0
  9 16  1  0  0  0  0
 10 17  1  0  0  0  0
 11 18  1  0  0  0  0
 12 14  1  0  0  0  0
 12 15  2  0  0  0  0
 14 25  1  0  0  0  0
 16 26  1  0  0  0  0
M  END
>  <Chemgauss4 Score>
-4.59563255310059

>  <Number of Confs>
5

$$$$
