CHR-SOS-70e-1
 OpenBabel03242009303D

 45 47  0  0  0  0  0  0  0  0999 V2000
   13.4785   -0.0576   23.0558 C   0  0  0  0  0  0  0  0  0  0  0  0
   12.3759    0.2388   23.8570 C   0  0  0  0  0  0  0  0  0  0  0  0
   13.4169   -1.1151   22.1482 C   0  0  0  0  0  0  0  0  0  0  0  0
    5.8413    2.0114   21.5354 C   0  0  0  0  0  0  0  0  0  0  0  0
    6.4302    0.9427   22.2018 C   0  0  0  0  0  0  0  0  0  0  0  0
   11.2118   -0.5223   23.7509 C   0  0  0  0  0  0  0  0  0  0  0  0
   12.2529   -1.8762   22.0420 C   0  0  0  0  0  0  0  0  0  0  0  0
    6.2423    3.2918   21.8812 C   0  0  0  0  0  0  0  0  0  0  0  0
    7.7206    2.5010   23.4520 C   0  0  0  0  0  0  0  0  0  0  0  0
    7.3887    1.1835   23.1799 C   0  0  0  0  0  0  0  0  0  0  0  0
   11.1503   -1.5798   22.8433 C   0  0  0  0  0  0  0  0  0  0  0  0
    7.7773   -1.2469   23.7126 C   0  0  0  0  0  0  0  0  0  0  0  0
    9.7966   -5.5294   25.4952 C   0  0  0  0  0  0  0  0  0  0  0  0
    8.5415   -5.2131   24.6867 C   0  0  0  0  0  0  0  0  0  0  0  0
   10.5225   -4.2640   25.9437 C   0  0  0  0  0  0  0  0  0  0  0  0
    8.8489   -4.2918   23.5085 C   0  0  0  0  0  0  0  0  0  0  0  0
   10.8289   -3.3440   24.7642 C   0  0  0  0  0  0  0  0  0  0  0  0
    9.5851   -3.0080   23.9252 C   0  0  0  0  0  0  0  0  0  0  0  0
    8.6544   -2.0403   24.6627 C   0  0  0  0  0  0  0  0  0  0  0  0
    7.1700    3.5651   22.8258 N   0  0  0  0  0  0  0  0  0  0  0  0
    8.0055    0.1165   23.8754 N   0  0  0  0  0  0  0  0  0  0  0  0
    6.9970   -1.7845   22.9337 O   0  0  0  0  0  0  0  0  0  0  0  0
   10.0108   -2.3267   22.7401 O   0  0  0  0  0  0  0  0  0  0  0  0
   14.3848    0.5351   23.1378 H   0  0  0  0  0  0  0  0  0  0  0  0
   12.4237    1.0621   24.5639 H   0  0  0  0  0  0  0  0  0  0  0  0
   14.2759   -1.3452   21.5245 H   0  0  0  0  0  0  0  0  0  0  0  0
    5.0920    1.8472   20.7694 H   0  0  0  0  0  0  0  0  0  0  0  0
    6.1353   -0.0729   21.9514 H   0  0  0  0  0  0  0  0  0  0  0  0
   10.3569   -0.2871   24.3790 H   0  0  0  0  0  0  0  0  0  0  0  0
   12.2113   -2.6999   21.3346 H   0  0  0  0  0  0  0  0  0  0  0  0
    5.8124    4.1593   21.3914 H   0  0  0  0  0  0  0  0  0  0  0  0
    8.4619    2.7525   24.2047 H   0  0  0  0  0  0  0  0  0  0  0  0
    9.5214   -6.1235   26.3773 H   0  0  0  0  0  0  0  0  0  0  0  0
   10.4747   -6.1500   24.8957 H   0  0  0  0  0  0  0  0  0  0  0  0
    8.0972   -6.1473   24.3218 H   0  0  0  0  0  0  0  0  0  0  0  0
    7.7961   -4.7416   25.3375 H   0  0  0  0  0  0  0  0  0  0  0  0
    9.9077   -3.7292   26.6768 H   0  0  0  0  0  0  0  0  0  0  0  0
   11.4546   -4.5381   26.4530 H   0  0  0  0  0  0  0  0  0  0  0  0
    9.4559   -4.8535   22.7824 H   0  0  0  0  0  0  0  0  0  0  0  0
    7.9061   -4.0326   23.0028 H   0  0  0  0  0  0  0  0  0  0  0  0
   11.2828   -2.4154   25.1440 H   0  0  0  0  0  0  0  0  0  0  0  0
   11.5877   -3.8330   24.1346 H   0  0  0  0  0  0  0  0  0  0  0  0
    9.2593   -1.3469   25.2512 H   0  0  0  0  0  0  0  0  0  0  0  0
    8.0175   -2.6106   25.3426 H   0  0  0  0  0  0  0  0  0  0  0  0
    8.6941    0.3922   24.5726 H   0  0  0  0  0  0  0  0  0  0  0  0
  1  2  1  0  0  0  0
  1  3  2  0  0  0  0
  1 24  1  0  0  0  0
  2  6  2  0  0  0  0
  2 25  1  0  0  0  0
  3  7  1  0  0  0  0
  3 26  1  0  0  0  0
  4  5  2  0  0  0  0
  4  8  1  0  0  0  0
  4 27  1  0  0  0  0
  5 10  1  0  0  0  0
  5 28  1  0  0  0  0
  6 11  1  0  0  0  0
  6 29  1  0  0  0  0
  7 11  2  0  0  0  0
  7 30  1  0  0  0  0
  8 20  2  0  0  0  0
  8 31  1  0  0  0  0
  9 10  2  0  0  0  0
  9 20  1  0  0  0  0
  9 32  1  0  0  0  0
 10 21  1  0  0  0  0
 11 23  1  0  0  0  0
 12 19  1  0  0  0  0
 12 21  1  0  0  0  0
 12 22  2  0  0  0  0
 13 14  1  0  0  0  0
 13 15  1  0  0  0  0
 13 33  1  0  0  0  0
 13 34  1  0  0  0  0
 14 16  1  0  0  0  0
 14 35  1  0  0  0  0
 14 36  1  0  0  0  0
 15 17  1  0  0  0  0
 15 37  1  0  0  0  0
 15 38  1  0  0  0  0
 16 18  1  0  0  0  0
 16 39  1  0  0  0  0
 16 40  1  0  0  0  0
 17 18  1  0  0  0  0
 17 41  1  0  0  0  0
 17 42  1  0  0  0  0
 18 19  1  0  0  0  0
 18 23  1  0  0  0  0
 19 43  1  0  0  0  0
 19 44  1  0  0  0  0
 21 45  1  0  0  0  0
M  END
>  <Chemgauss4 Score>
-5.37287902832031

>  <Number of Confs>
93

$$$$
