CHR-SOS-1f3-8
 OpenBabel03242009303D

 46 48  0  0  0  0  0  0  0  0999 V2000
    5.8453   -2.0323   23.9551 C   0  0  0  0  0  0  0  0  0  0  0  0
    6.1543   -2.4672   25.2439 C   0  0  0  0  0  0  0  0  0  0  0  0
    5.8650   -2.9342   22.8912 C   0  0  0  0  0  0  0  0  0  0  0  0
   12.7162   -0.9425   22.6339 C   0  0  0  0  0  0  0  0  0  0  0  0
    6.5031   -4.7059   24.4048 C   0  0  0  0  0  0  0  0  0  0  0  0
   12.5594    0.2315   23.3529 C   0  0  0  0  0  0  0  0  0  0  0  0
   11.0904   -0.7562   24.8172 C   0  0  0  0  0  0  0  0  0  0  0  0
   12.0089   -2.0630   23.0551 C   0  0  0  0  0  0  0  0  0  0  0  0
   11.1781   -1.9765   24.1667 C   0  0  0  0  0  0  0  0  0  0  0  0
    6.4833   -3.8040   25.4687 C   0  0  0  0  0  0  0  0  0  0  0  0
    6.1939   -4.2710   23.1160 C   0  0  0  0  0  0  0  0  0  0  0  0
    9.5721   -3.1420   25.7297 C   0  0  0  0  0  0  0  0  0  0  0  0
    8.1179   -5.9630   28.7054 C   0  0  0  0  0  0  0  0  0  0  0  0
    8.7033   -4.5911   28.3250 C   0  0  0  0  0  0  0  0  0  0  0  0
    8.1237   -6.3167   27.2073 C   0  0  0  0  0  0  0  0  0  0  0  0
    8.1038   -4.7902   26.9029 C   0  0  0  0  0  0  0  0  0  0  0  0
   12.1587   -3.3417   22.2981 C   0  0  0  0  0  0  0  0  0  0  0  0
   11.7619    0.3540   24.4376 N   0  0  0  0  0  0  0  0  0  0  0  0
    5.7758   -4.3807   20.4858 N   0  0  0  0  0  0  0  0  0  0  0  0
   10.4386   -3.0878   24.6343 N   0  0  0  0  0  0  0  0  0  0  0  0
    9.0478   -4.4218   25.8453 N   0  0  0  0  0  0  0  0  0  0  0  0
    9.2957   -2.2185   26.4915 O   0  0  0  0  0  0  0  0  0  0  0  0
    7.5870   -5.8489   21.5855 O   0  0  0  0  0  0  0  0  0  0  0  0
    5.1573   -6.3786   21.9901 O   0  0  0  0  0  0  0  0  0  0  0  0
    6.7858   -4.2281   26.7256 O   0  0  0  0  0  0  0  0  0  0  0  0
    6.2161   -5.4003   21.7842 S   0  0  0  0  0  0  0  0  0  0  0  0
    5.5895   -0.9915   23.7801 H   0  0  0  0  0  0  0  0  0  0  0  0
    6.1374   -1.7599   26.0684 H   0  0  0  0  0  0  0  0  0  0  0  0
    5.6215   -2.5852   21.8914 H   0  0  0  0  0  0  0  0  0  0  0  0
   13.3722   -0.9766   21.7707 H   0  0  0  0  0  0  0  0  0  0  0  0
    6.7605   -5.7468   24.5853 H   0  0  0  0  0  0  0  0  0  0  0  0
   13.0890    1.1339   23.0652 H   0  0  0  0  0  0  0  0  0  0  0  0
   10.4590   -0.6259   25.6912 H   0  0  0  0  0  0  0  0  0  0  0  0
    8.7474   -6.5882   29.3435 H   0  0  0  0  0  0  0  0  0  0  0  0
    7.1134   -5.9070   29.1402 H   0  0  0  0  0  0  0  0  0  0  0  0
    8.3043   -3.7481   28.8967 H   0  0  0  0  0  0  0  0  0  0  0  0
    9.7985   -4.5522   28.3630 H   0  0  0  0  0  0  0  0  0  0  0  0
    9.0292   -6.8414   26.8797 H   0  0  0  0  0  0  0  0  0  0  0  0
    7.2509   -6.8815   26.8668 H   0  0  0  0  0  0  0  0  0  0  0  0
   12.9822   -3.9344   22.7129 H   0  0  0  0  0  0  0  0  0  0  0  0
   11.2400   -3.9394   22.3440 H   0  0  0  0  0  0  0  0  0  0  0  0
   12.3638   -3.1524   21.2371 H   0  0  0  0  0  0  0  0  0  0  0  0
    6.4996   -4.1343   19.7997 H   0  0  0  0  0  0  0  0  0  0  0  0
    4.8398   -4.4959   20.0786 H   0  0  0  0  0  0  0  0  0  0  0  0
   10.5541   -3.9490   24.1059 H   0  0  0  0  0  0  0  0  0  0  0  0
    9.3261   -5.1217   25.1786 H   0  0  0  0  0  0  0  0  0  0  0  0
  1  2  2  0  0  0  0
  1  3  1  0  0  0  0
  1 27  1  0  0  0  0
  2 10  1  0  0  0  0
  2 28  1  0  0  0  0
  3 11  2  0  0  0  0
  3 29  1  0  0  0  0
  4  6  2  0  0  0  0
  4  8  1  0  0  0  0
  4 30  1  0  0  0  0
  5 10  2  0  0  0  0
  5 11  1  0  0  0  0
  5 31  1  0  0  0  0
  6 18  1  0  0  0  0
  6 32  1  0  0  0  0
  7  9  1  0  0  0  0
  7 18  2  0  0  0  0
  7 33  1  0  0  0  0
  8  9  2  0  0  0  0
  8 17  1  0  0  0  0
  9 20  1  0  0  0  0
 10 25  1  0  0  0  0
 11 26  1  0  0  0  0
 12 20  1  0  0  0  0
 12 21  1  0  0  0  0
 12 22  2  0  0  0  0
 13 14  1  0  0  0  0
 13 15  1  0  0  0  0
 13 34  1  0  0  0  0
 13 35  1  0  0  0  0
 14 16  1  0  0  0  0
 14 36  1  0  0  0  0
 14 37  1  0  0  0  0
 15 16  1  0  0  0  0
 15 38  1  0  0  0  0
 15 39  1  0  0  0  0
 16 21  1  0  0  0  0
 16 25  1  0  0  0  0
 17 40  1  0  0  0  0
 17 41  1  0  0  0  0
 17 42  1  0  0  0  0
 19 26  1  0  0  0  0
 19 43  1  0  0  0  0
 19 44  1  0  0  0  0
 20 45  1  0  0  0  0
 21 46  1  0  0  0  0
 23 26  2  0  0  0  0
 24 26  2  0  0  0  0
M  END
>  <Chemgauss4 Score>
-4.94828605651855

>  <Number of Confs>
118

$$$$
