DAR-DIA-43a-5
 OpenBabel03242009303D

 40 42  0  0  1  0  0  0  0  0999 V2000
    5.5048   -5.4610   27.1730 C   0  0  0  0  0  0  0  0  0  0  0  0
   12.7964   -1.0066   21.9779 C   0  0  0  0  0  0  0  0  0  0  0  0
    6.6070   -4.6400   27.4112 C   0  0  0  0  0  0  0  0  0  0  0  0
   11.4781   -1.1522   22.3954 C   0  0  0  0  0  0  0  0  0  0  0  0
    5.1846   -5.8377   25.8687 C   0  0  0  0  0  0  0  0  0  0  0  0
    7.0688   -4.5723   25.0407 C   0  0  0  0  0  0  0  0  0  0  0  0
   13.6447   -0.2425   22.7630 C   0  0  0  0  0  0  0  0  0  0  0  0
   11.9808    0.2052   24.2825 C   0  0  0  0  0  0  0  0  0  0  0  0
    7.3890   -4.1956   26.3451 C   0  0  0  0  0  0  0  0  0  0  0  0
   11.0544   -0.5378   23.5686 C   0  0  0  0  0  0  0  0  0  0  0  0
    5.9666   -5.3933   24.8025 C   0  0  0  0  0  0  0  0  0  0  0  0
    8.5168   -1.9684   25.9112 C   0  0  0  0  0  0  0  0  0  0  0  0
    9.4350   -1.8480   24.9426 C   0  0  0  0  0  0  0  0  0  0  0  0
   10.0791   -5.3208   26.0437 C   0  0  0  0  0  0  0  0  0  0  0  0
    8.5857   -3.3025   26.6045 C   0  0  2  0  0  0  0  0  0  0  0  0
   10.2799   -3.0821   24.8184 C   0  0  1  0  0  0  0  0  0  0  0  0
    9.9608   -3.8280   26.1254 C   0  0  2  0  0  0  0  0  0  0  0  0
    9.6316   -0.6771   24.0484 C   0  0  0  0  0  0  0  0  0  0  0  0
   13.2695    0.3694   23.9086 N   0  0  0  0  0  0  0  0  0  0  0  0
   11.3304   -5.7588   25.6796 N   0  0  0  0  0  0  0  0  0  0  0  0
    9.1360   -6.0654   26.2998 O   0  0  0  0  0  0  0  0  0  0  0  0
    9.8999   -3.8142   23.6651 O   0  0  0  0  0  0  0  0  0  0  0  0
    5.5704   -5.8575   23.1934 Cl  0  0  0  0  0  0  0  0  0  0  0  0
    4.8960   -5.8067   28.0035 H   0  0  0  0  0  0  0  0  0  0  0  0
   13.1488   -1.4767   21.0669 H   0  0  0  0  0  0  0  0  0  0  0  0
    6.8490   -4.3514   28.4308 H   0  0  0  0  0  0  0  0  0  0  0  0
   10.7888   -1.7456   21.8010 H   0  0  0  0  0  0  0  0  0  0  0  0
    4.3225   -6.4778   25.6980 H   0  0  0  0  0  0  0  0  0  0  0  0
    7.6819   -4.2236   24.2129 H   0  0  0  0  0  0  0  0  0  0  0  0
   14.6823   -0.0982   22.4803 H   0  0  0  0  0  0  0  0  0  0  0  0
   11.7082    0.7074   25.2056 H   0  0  0  0  0  0  0  0  0  0  0  0
    7.7938   -1.2048   26.1648 H   0  0  0  0  0  0  0  0  0  0  0  0
    8.6384   -3.1386   27.7216 H   0  0  0  0  0  0  0  0  0  0  0  0
   11.3539   -2.8386   24.7580 H   0  0  0  0  0  0  0  0  0  0  0  0
   10.7005   -3.5139   26.8689 H   0  0  0  0  0  0  0  0  0  0  0  0
    9.3358    0.2416   24.5728 H   0  0  0  0  0  0  0  0  0  0  0  0
    8.9549   -0.7566   23.1873 H   0  0  0  0  0  0  0  0  0  0  0  0
   12.0540   -5.0706   25.4997 H   0  0  0  0  0  0  0  0  0  0  0  0
   11.5594   -6.7428   25.5836 H   0  0  0  0  0  0  0  0  0  0  0  0
   10.0369   -3.2293   22.9015 H   0  0  0  0  0  0  0  0  0  0  0  0
  1  3  2  0  0  0  0
  1  5  1  0  0  0  0
  1 24  1  0  0  0  0
  2  4  2  0  0  0  0
  2  7  1  0  0  0  0
  2 25  1  0  0  0  0
  3  9  1  0  0  0  0
  3 26  1  0  0  0  0
  4 10  1  0  0  0  0
  4 27  1  0  0  0  0
  5 11  2  0  0  0  0
  5 28  1  0  0  0  0
  6  9  2  0  0  0  0
  6 11  1  0  0  0  0
  6 29  1  0  0  0  0
  7 19  2  0  0  0  0
  7 30  1  0  0  0  0
  8 10  2  0  0  0  0
  8 19  1  0  0  0  0
  8 31  1  0  0  0  0
  9 15  1  0  0  0  0
 10 18  1  0  0  0  0
 11 23  1  0  0  0  0
 12 13  2  0  0  0  0
 12 15  1  0  0  0  0
 12 32  1  0  0  0  0
 13 16  1  0  0  0  0
 13 18  1  0  0  0  0
 14 17  1  0  0  0  0
 14 20  1  0  0  0  0
 14 21  2  0  0  0  0
 15 17  1  0  0  0  0
 15 33  1  1  0  0  0
 16 17  1  0  0  0  0
 16 22  1  0  0  0  0
 16 34  1  6  0  0  0
 17 35  1  1  0  0  0
 18 36  1  0  0  0  0
 18 37  1  0  0  0  0
 20 38  1  0  0  0  0
 20 39  1  0  0  0  0
 22 40  1  0  0  0  0
M  END
>  <Chemgauss4 Score>
-7.02036905288696

>  <Number of Confs>
200

$$$$
