DAR-DIA-033-15
 OpenBabel03242009303D

 36 37  0  0  0  0  0  0  0  0999 V2000
   12.8755    0.4056   21.9817 C   0  0  0  0  0  0  0  0  0  0  0  0
   13.4780   -0.8418   21.8190 C   0  0  0  0  0  0  0  0  0  0  0  0
   11.8282    0.5612   22.8899 C   0  0  0  0  0  0  0  0  0  0  0  0
   13.0333   -1.9337   22.5645 C   0  0  0  0  0  0  0  0  0  0  0  0
   11.3835   -0.5307   23.6353 C   0  0  0  0  0  0  0  0  0  0  0  0
    7.0006   -5.0917   27.3617 C   0  0  0  0  0  0  0  0  0  0  0  0
    7.2530   -4.5723   28.6212 C   0  0  0  0  0  0  0  0  0  0  0  0
    9.3786   -3.9323   28.0294 C   0  0  0  0  0  0  0  0  0  0  0  0
    8.0111   -5.0112   26.4101 C   0  0  0  0  0  0  0  0  0  0  0  0
    9.2259   -4.4219   26.7423 C   0  0  0  0  0  0  0  0  0  0  0  0
   11.9861   -1.7781   23.4726 C   0  0  0  0  0  0  0  0  0  0  0  0
   10.5107   -2.9097   25.1720 C   0  0  0  0  0  0  0  0  0  0  0  0
   10.3534   -4.3073   25.7501 C   0  0  0  0  0  0  0  0  0  0  0  0
    7.7701   -5.5607   25.0432 C   0  0  0  0  0  0  0  0  0  0  0  0
    7.9263   -4.5193   23.9289 C   0  0  0  0  0  0  0  0  0  0  0  0
    8.4201   -3.9926   28.9809 N   0  0  0  0  0  0  0  0  0  0  0  0
    7.0254   -3.4093   24.0873 N   0  0  0  0  0  0  0  0  0  0  0  0
   11.5415   -2.8704   24.2182 N   0  0  0  0  0  0  0  0  0  0  0  0
    9.8054   -1.9705   25.5264 O   0  0  0  0  0  0  0  0  0  0  0  0
   13.2220    1.2562   21.4020 H   0  0  0  0  0  0  0  0  0  0  0  0
   14.2940   -0.9631   21.1127 H   0  0  0  0  0  0  0  0  0  0  0  0
   11.3599    1.5329   23.0170 H   0  0  0  0  0  0  0  0  0  0  0  0
   13.5107   -2.9010   22.4293 H   0  0  0  0  0  0  0  0  0  0  0  0
   10.5665   -0.3975   24.3402 H   0  0  0  0  0  0  0  0  0  0  0  0
    6.0422   -5.5456   27.1341 H   0  0  0  0  0  0  0  0  0  0  0  0
    6.4975   -4.6103   29.3991 H   0  0  0  0  0  0  0  0  0  0  0  0
   10.3035   -3.4614   28.3479 H   0  0  0  0  0  0  0  0  0  0  0  0
   11.2969   -4.5976   26.2297 H   0  0  0  0  0  0  0  0  0  0  0  0
   10.1905   -5.0138   24.9263 H   0  0  0  0  0  0  0  0  0  0  0  0
    6.7507   -5.9781   24.9930 H   0  0  0  0  0  0  0  0  0  0  0  0
    8.4419   -6.4127   24.8443 H   0  0  0  0  0  0  0  0  0  0  0  0
    8.9398   -4.1059   23.9306 H   0  0  0  0  0  0  0  0  0  0  0  0
    7.7387   -4.9591   22.9439 H   0  0  0  0  0  0  0  0  0  0  0  0
    6.4153   -3.3606   23.2969 H   0  0  0  0  0  0  0  0  0  0  0  0
    6.4853   -3.5360   24.9189 H   0  0  0  0  0  0  0  0  0  0  0  0
   12.0294   -3.7576   24.0485 H   0  0  0  0  0  0  0  0  0  0  0  0
  1  2  1  0  0  0  0
  1  3  2  0  0  0  0
  1 20  1  0  0  0  0
  2  4  2  0  0  0  0
  2 21  1  0  0  0  0
  3  5  1  0  0  0  0
  3 22  1  0  0  0  0
  4 11  1  0  0  0  0
  4 23  1  0  0  0  0
  5 11  2  0  0  0  0
  5 24  1  0  0  0  0
  6  7  2  0  0  0  0
  6  9  1  0  0  0  0
  6 25  1  0  0  0  0
  7 16  1  0  0  0  0
  7 26  1  0  0  0  0
  8 10  1  0  0  0  0
  8 16  2  0  0  0  0
  8 27  1  0  0  0  0
  9 10  2  0  0  0  0
  9 14  1  0  0  0  0
 10 13  1  0  0  0  0
 11 18  1  0  0  0  0
 12 13  1  0  0  0  0
 12 18  1  0  0  0  0
 12 19  2  0  0  0  0
 13 28  1  0  0  0  0
 13 29  1  0  0  0  0
 14 15  1  0  0  0  0
 14 30  1  0  0  0  0
 14 31  1  0  0  0  0
 15 17  1  0  0  0  0
 15 32  1  0  0  0  0
 15 33  1  0  0  0  0
 17 34  1  0  0  0  0
 17 35  1  0  0  0  0
 18 36  1  0  0  0  0
M  END
>  <Chemgauss4 Score>
-5.04109525680542

>  <Number of Confs>
126

$$$$
