SAL-INS-1c7-11
 OpenBabel03242009303D

 41 43  0  0  1  0  0  0  0  0999 V2000
   13.3378    0.0468   22.9992 C   0  0  0  0  0  0  0  0  0  0  0  0
   13.2385   -1.0795   22.1824 C   0  0  0  0  0  0  0  0  0  0  0  0
   12.5597    0.1423   24.1530 C   0  0  0  0  0  0  0  0  0  0  0  0
   12.3611   -2.1102   22.5193 C   0  0  0  0  0  0  0  0  0  0  0  0
   11.6823   -0.8883   24.4899 C   0  0  0  0  0  0  0  0  0  0  0  0
    6.2924   -1.7266   22.2929 C   0  0  0  0  0  0  0  0  0  0  0  0
    5.8010   -1.2426   21.0461 C   0  0  0  0  0  0  0  0  0  0  0  0
   11.5830   -2.0146   23.6731 C   0  0  0  0  0  0  0  0  0  0  0  0
    7.6505   -1.5365   22.4227 C   0  0  0  0  0  0  0  0  0  0  0  0
    6.8024   -0.7007   20.2706 C   0  0  0  0  0  0  0  0  0  0  0  0
    8.8994   -4.7068   27.0910 C   0  0  0  0  0  0  0  0  0  0  0  0
    8.9565   -5.1921   24.6663 C   0  0  0  0  0  0  0  0  0  0  0  0
    8.5581   -4.3207   23.4694 C   0  0  0  0  0  0  0  0  0  0  0  0
   10.3622   -3.3425   25.5505 C   0  0  0  0  0  0  0  0  0  0  0  0
   10.6227   -3.1418   24.0421 C   0  0  1  0  0  0  0  0  0  0  0  0
    8.5397   -1.9040   23.5753 C   0  0  0  0  0  0  0  0  0  0  0  0
    9.3795   -3.8165   28.2117 C   0  0  0  0  0  0  0  0  0  0  0  0
    9.3716   -4.3939   25.8152 N   0  0  0  0  0  0  0  0  0  0  0  0
    9.3504   -3.0897   23.2860 N   0  0  0  0  0  0  0  0  0  0  0  0
    8.1304   -5.6381   27.3391 O   0  0  0  0  0  0  0  0  0  0  0  0
    8.3276   -0.7771   21.0453 S   0  0  0  0  0  0  0  0  0  0  0  0
    8.2356   -2.4835   28.3211 Cl  0  0  0  0  0  0  0  0  0  0  0  0
    6.5398    0.0466   18.5443 Br  0  0  0  0  0  0  0  0  0  0  0  0
   14.0220    0.8486   22.7375 H   0  0  0  0  0  0  0  0  0  0  0  0
   13.8450   -1.1546   21.2846 H   0  0  0  0  0  0  0  0  0  0  0  0
   12.6375    1.0186   24.7898 H   0  0  0  0  0  0  0  0  0  0  0  0
   12.2902   -2.9839   21.8768 H   0  0  0  0  0  0  0  0  0  0  0  0
   11.0799   -0.8052   25.3907 H   0  0  0  0  0  0  0  0  0  0  0  0
    5.6771   -2.1903   23.0534 H   0  0  0  0  0  0  0  0  0  0  0  0
    4.7626   -1.2940   20.7429 H   0  0  0  0  0  0  0  0  0  0  0  0
    8.1247   -5.8574   24.9100 H   0  0  0  0  0  0  0  0  0  0  0  0
    9.8086   -5.8301   24.3980 H   0  0  0  0  0  0  0  0  0  0  0  0
    8.6435   -4.9474   22.5543 H   0  0  0  0  0  0  0  0  0  0  0  0
    7.4743   -4.0725   23.5429 H   0  0  0  0  0  0  0  0  0  0  0  0
   11.2846   -3.6739   26.0362 H   0  0  0  0  0  0  0  0  0  0  0  0
   10.0642   -2.4056   26.0240 H   0  0  0  0  0  0  0  0  0  0  0  0
   11.1446   -4.0919   23.6770 H   0  0  0  0  0  0  0  0  0  0  0  0
    9.2206   -1.0802   23.8157 H   0  0  0  0  0  0  0  0  0  0  0  0
    7.9510   -2.1124   24.4749 H   0  0  0  0  0  0  0  0  0  0  0  0
   10.3659   -3.4413   27.9642 H   0  0  0  0  0  0  0  0  0  0  0  0
    9.3799   -4.3839   29.1353 H   0  0  0  0  0  0  0  0  0  0  0  0
  1  2  1  0  0  0  0
  1  3  2  0  0  0  0
  1 24  1  0  0  0  0
  2  4  2  0  0  0  0
  2 25  1  0  0  0  0
  3  5  1  0  0  0  0
  3 26  1  0  0  0  0
  4  8  1  0  0  0  0
  4 27  1  0  0  0  0
  5  8  2  0  0  0  0
  5 28  1  0  0  0  0
  6  7  1  0  0  0  0
  6  9  2  0  0  0  0
  6 29  1  0  0  0  0
  7 10  2  0  0  0  0
  7 30  1  0  0  0  0
  8 15  1  0  0  0  0
  9 16  1  0  0  0  0
  9 21  1  0  0  0  0
 10 21  1  0  0  0  0
 10 23  1  0  0  0  0
 11 17  1  0  0  0  0
 11 18  1  0  0  0  0
 11 20  2  0  0  0  0
 12 13  1  0  0  0  0
 12 18  1  0  0  0  0
 12 31  1  0  0  0  0
 12 32  1  0  0  0  0
 13 19  1  0  0  0  0
 13 33  1  0  0  0  0
 13 34  1  0  0  0  0
 14 15  1  0  0  0  0
 14 18  1  0  0  0  0
 14 35  1  0  0  0  0
 14 36  1  0  0  0  0
 15 19  1  0  0  0  0
 15 37  1  6  0  0  0
 16 19  1  0  0  0  0
 16 38  1  0  0  0  0
 16 39  1  0  0  0  0
 17 22  1  0  0  0  0
 17 40  1  0  0  0  0
 17 41  1  0  0  0  0
M  END
>  <Chemgauss4 Score>
-5.84681415557861

>  <Number of Confs>
114

$$$$
