DAR-DIA-fc9-12
 OpenBabel03242009303D

 33 35  0  0  1  0  0  0  0  0999 V2000
   13.6863   -0.3987   22.5768 C   0  0  0  0  0  0  0  0  0  0  0  0
   13.1360   -1.5427   21.9988 C   0  0  0  0  0  0  0  0  0  0  0  0
   12.9195    0.3847   23.4393 C   0  0  0  0  0  0  0  0  0  0  0  0
    8.2262   -5.7046   27.2298 C   0  0  0  0  0  0  0  0  0  0  0  0
   11.8190   -1.9033   22.2833 C   0  0  0  0  0  0  0  0  0  0  0  0
   11.6024    0.0242   23.7238 C   0  0  0  0  0  0  0  0  0  0  0  0
    8.4635   -4.7204   26.2767 C   0  0  0  0  0  0  0  0  0  0  0  0
    8.1703   -5.3195   28.5596 C   0  0  0  0  0  0  0  0  0  0  0  0
    8.5606   -3.1180   28.0314 C   0  0  0  0  0  0  0  0  0  0  0  0
   11.0521   -1.1198   23.1458 C   0  0  0  0  0  0  0  0  0  0  0  0
    8.6351   -3.3999   26.6768 C   0  0  0  0  0  0  0  0  0  0  0  0
    8.2862   -0.0759   24.9654 C   0  0  0  0  0  0  0  0  0  0  0  0
    8.7662   -0.3217   23.7465 C   0  0  0  0  0  0  0  0  0  0  0  0
    9.5593   -2.6310   24.5073 C   0  0  0  0  0  0  0  0  0  0  0  0
    8.5600   -0.9744   26.1172 C   0  0  0  0  0  0  0  0  0  0  0  0
    9.6177   -1.5118   23.4559 C   0  0  2  0  0  0  0  0  0  0  0  0
    8.3319   -4.0470   28.9865 N   0  0  0  0  0  0  0  0  0  0  0  0
    8.8838   -2.3527   25.7082 N   0  0  0  0  0  0  0  0  0  0  0  0
   10.1249   -3.6984   24.2458 O   0  0  0  0  0  0  0  0  0  0  0  0
   14.7123   -0.1188   22.3562 H   0  0  0  0  0  0  0  0  0  0  0  0
   13.7333   -2.1534   21.3280 H   0  0  0  0  0  0  0  0  0  0  0  0
   13.3479    1.2749   23.8904 H   0  0  0  0  0  0  0  0  0  0  0  0
    8.0894   -6.7404   26.9407 H   0  0  0  0  0  0  0  0  0  0  0  0
   11.3985   -2.7962   21.8282 H   0  0  0  0  0  0  0  0  0  0  0  0
   11.0124    0.6406   24.3969 H   0  0  0  0  0  0  0  0  0  0  0  0
    8.5126   -4.9932   25.2258 H   0  0  0  0  0  0  0  0  0  0  0  0
    7.9886   -6.0495   29.3415 H   0  0  0  0  0  0  0  0  0  0  0  0
    8.6861   -2.1061   28.4051 H   0  0  0  0  0  0  0  0  0  0  0  0
    7.6879    0.8135   25.1374 H   0  0  0  0  0  0  0  0  0  0  0  0
    8.5430    0.3673   22.9367 H   0  0  0  0  0  0  0  0  0  0  0  0
    9.3947   -0.5838   26.7102 H   0  0  0  0  0  0  0  0  0  0  0  0
    7.6687   -1.0163   26.7546 H   0  0  0  0  0  0  0  0  0  0  0  0
    9.2089   -1.9707   22.5265 H   0  0  0  0  0  0  0  0  0  0  0  0
  1  2  1  0  0  0  0
  1  3  2  0  0  0  0
  1 20  1  0  0  0  0
  2  5  2  0  0  0  0
  2 21  1  0  0  0  0
  3  6  1  0  0  0  0
  3 22  1  0  0  0  0
  4  7  2  0  0  0  0
  4  8  1  0  0  0  0
  4 23  1  0  0  0  0
  5 10  1  0  0  0  0
  5 24  1  0  0  0  0
  6 10  2  0  0  0  0
  6 25  1  0  0  0  0
  7 11  1  0  0  0  0
  7 26  1  0  0  0  0
  8 17  2  0  0  0  0
  8 27  1  0  0  0  0
  9 11  2  0  0  0  0
  9 17  1  0  0  0  0
  9 28  1  0  0  0  0
 10 16  1  0  0  0  0
 11 18  1  0  0  0  0
 12 13  2  0  0  0  0
 12 15  1  0  0  0  0
 12 29  1  0  0  0  0
 13 16  1  0  0  0  0
 13 30  1  0  0  0  0
 14 16  1  0  0  0  0
 14 18  1  0  0  0  0
 14 19  2  0  0  0  0
 15 18  1  0  0  0  0
 15 31  1  0  0  0  0
 15 32  1  0  0  0  0
 16 33  1  6  0  0  0
M  END
>  <Chemgauss4 Score>
-6.18818950653076

>  <Number of Confs>
8

$$$$
