DAN-LON-a5f-4
 OpenBabel03242009303D

 50 51  0  0  1  0  0  0  0  0999 V2000
    9.4660   -0.4498   22.6996 C   0  0  0  0  0  0  0  0  0  0  0  0
    9.3561   -0.6086   24.0810 C   0  0  0  0  0  0  0  0  0  0  0  0
   10.6950   -0.6480   22.0703 C   0  0  0  0  0  0  0  0  0  0  0  0
   11.7043   -1.1636   24.2040 C   0  0  0  0  0  0  0  0  0  0  0  0
   10.4753   -0.9655   24.8332 C   0  0  0  0  0  0  0  0  0  0  0  0
   11.8142   -1.0049   22.8225 C   0  0  0  0  0  0  0  0  0  0  0  0
    9.4945   -3.8551   25.0149 C   0  0  0  0  0  0  0  0  0  0  0  0
    7.0790   -5.3517   27.8734 C   0  0  0  0  0  0  0  0  0  0  0  0
    7.7798   -2.9755   28.3409 C   0  0  0  0  0  0  0  0  0  0  0  0
    8.9314   -2.0099   28.0596 C   0  0  0  0  0  0  0  0  0  0  0  0
    9.3858   -4.6034   27.3721 C   0  0  0  0  0  0  0  0  0  0  0  0
    9.9066   -3.5182   26.4172 C   0  0  2  0  0  0  0  0  0  0  0  0
    5.9887   -4.1839   23.7062 C   0  0  0  0  0  0  0  0  0  0  0  0
    7.9520   -3.1656   22.5244 C   0  0  0  0  0  0  0  0  0  0  0  0
    7.9592   -5.6064   23.0993 C   0  0  0  0  0  0  0  0  0  0  0  0
   10.3565   -1.1350   26.3202 C   0  0  0  0  0  0  0  0  0  0  0  0
    5.7384   -4.9907   28.4661 C   0  0  0  0  0  0  0  0  0  0  0  0
    7.5140   -4.2119   23.5545 C   0  0  0  0  0  0  0  0  0  0  0  0
    8.0277   -4.3283   27.8371 N   0  0  0  0  0  0  0  0  0  0  0  0
    9.3856   -2.1685   26.6774 N   0  0  0  0  0  0  0  0  0  0  0  0
    8.1264   -3.9067   24.8276 N   0  0  0  0  0  0  0  0  0  0  0  0
   10.3536   -4.0525   24.1636 O   0  0  0  0  0  0  0  0  0  0  0  0
    7.2723   -6.4948   27.4537 O   0  0  0  0  0  0  0  0  0  0  0  0
   13.3305   -1.2481   22.0458 Cl  0  0  0  0  0  0  0  0  0  0  0  0
    4.7347   -6.4324   28.3568 Cl  0  0  0  0  0  0  0  0  0  0  0  0
    8.5943   -0.1718   22.1142 H   0  0  0  0  0  0  0  0  0  0  0  0
    8.3946   -0.4521   24.5629 H   0  0  0  0  0  0  0  0  0  0  0  0
   10.7660   -0.5205   20.9929 H   0  0  0  0  0  0  0  0  0  0  0  0
   12.5738   -1.4423   24.7948 H   0  0  0  0  0  0  0  0  0  0  0  0
    7.5743   -2.9995   29.4242 H   0  0  0  0  0  0  0  0  0  0  0  0
    6.8521   -2.6187   27.8591 H   0  0  0  0  0  0  0  0  0  0  0  0
    8.5658   -0.9958   28.2189 H   0  0  0  0  0  0  0  0  0  0  0  0
    9.7403   -2.1978   28.7666 H   0  0  0  0  0  0  0  0  0  0  0  0
    9.3534   -5.5848   26.8731 H   0  0  0  0  0  0  0  0  0  0  0  0
   10.0855   -4.7142   28.2089 H   0  0  0  0  0  0  0  0  0  0  0  0
   11.0178   -3.5063   26.4372 H   0  0  0  0  0  0  0  0  0  0  0  0
    5.6498   -4.9251   24.4394 H   0  0  0  0  0  0  0  0  0  0  0  0
    5.6388   -3.1996   24.0367 H   0  0  0  0  0  0  0  0  0  0  0  0
    5.4930   -4.4173   22.7568 H   0  0  0  0  0  0  0  0  0  0  0  0
    9.0410   -3.1666   22.3983 H   0  0  0  0  0  0  0  0  0  0  0  0
    7.6637   -2.1559   22.8392 H   0  0  0  0  0  0  0  0  0  0  0  0
    7.4991   -3.3557   21.5450 H   0  0  0  0  0  0  0  0  0  0  0  0
    9.0481   -5.6549   22.9826 H   0  0  0  0  0  0  0  0  0  0  0  0
    7.6625   -6.3753   23.8212 H   0  0  0  0  0  0  0  0  0  0  0  0
    7.5177   -5.8664   22.1302 H   0  0  0  0  0  0  0  0  0  0  0  0
   11.3222   -1.4146   26.7553 H   0  0  0  0  0  0  0  0  0  0  0  0
   10.0425   -0.2012   26.7984 H   0  0  0  0  0  0  0  0  0  0  0  0
    5.3013   -4.1878   27.8835 H   0  0  0  0  0  0  0  0  0  0  0  0
    5.8770   -4.7112   29.5042 H   0  0  0  0  0  0  0  0  0  0  0  0
    7.5222   -3.7213   25.6226 H   0  0  0  0  0  0  0  0  0  0  0  0
  1  2  2  0  0  0  0
  1  3  1  0  0  0  0
  1 26  1  0  0  0  0
  2  5  1  0  0  0  0
  2 27  1  0  0  0  0
  3  6  2  0  0  0  0
  3 28  1  0  0  0  0
  4  5  2  0  0  0  0
  4  6  1  0  0  0  0
  4 29  1  0  0  0  0
  5 16  1  0  0  0  0
  6 24  1  0  0  0  0
  7 12  1  0  0  0  0
  7 21  1  0  0  0  0
  7 22  2  0  0  0  0
  8 17  1  0  0  0  0
  8 19  1  0  0  0  0
  8 23  2  0  0  0  0
  9 10  1  0  0  0  0
  9 19  1  0  0  0  0
  9 30  1  0  0  0  0
  9 31  1  0  0  0  0
 10 20  1  0  0  0  0
 10 32  1  0  0  0  0
 10 33  1  0  0  0  0
 11 12  1  0  0  0  0
 11 19  1  0  0  0  0
 11 34  1  0  0  0  0
 11 35  1  0  0  0  0
 12 20  1  0  0  0  0
 12 36  1  1  0  0  0
 13 18  1  0  0  0  0
 13 37  1  0  0  0  0
 13 38  1  0  0  0  0
 13 39  1  0  0  0  0
 14 18  1  0  0  0  0
 14 40  1  0  0  0  0
 14 41  1  0  0  0  0
 14 42  1  0  0  0  0
 15 18  1  0  0  0  0
 15 43  1  0  0  0  0
 15 44  1  0  0  0  0
 15 45  1  0  0  0  0
 16 20  1  0  0  0  0
 16 46  1  0  0  0  0
 16 47  1  0  0  0  0
 17 25  1  0  0  0  0
 17 48  1  0  0  0  0
 17 49  1  0  0  0  0
 18 21  1  0  0  0  0
 21 50  1  0  0  0  0
M  END
>  <Chemgauss4 Score>
-5.35276317596436

>  <Number of Confs>
200

$$$$
