SAL-INS-1c7-10
 OpenBabel03242009303D

 40 42  0  0  1  0  0  0  0  0999 V2000
    8.0137   -3.1963   22.4735 C   0  0  0  0  0  0  0  0  0  0  0  0
    7.2667   -4.2552   21.9575 C   0  0  0  0  0  0  0  0  0  0  0  0
    7.9770   -5.6523   23.7962 C   0  0  0  0  0  0  0  0  0  0  0  0
    9.1823   -3.9498   28.0113 C   0  0  0  0  0  0  0  0  0  0  0  0
    7.0095   -4.3082   28.0945 C   0  0  0  0  0  0  0  0  0  0  0  0
    8.7241   -4.5934   24.3122 C   0  0  0  0  0  0  0  0  0  0  0  0
    8.7425   -3.3654   23.6509 C   0  0  0  0  0  0  0  0  0  0  0  0
    7.2483   -5.4832   22.6189 C   0  0  0  0  0  0  0  0  0  0  0  0
    8.7137   -4.4752   26.8303 C   0  0  0  0  0  0  0  0  0  0  0  0
   11.7088   -2.0692   25.1369 C   0  0  0  0  0  0  0  0  0  0  0  0
   12.6246   -1.1035   25.2613 C   0  0  0  0  0  0  0  0  0  0  0  0
    8.8364   -1.3813   25.0816 C   0  0  0  0  0  0  0  0  0  0  0  0
   11.1579   -0.7799   23.1422 C   0  0  0  0  0  0  0  0  0  0  0  0
   10.9130   -2.1037   23.8645 C   0  0  2  0  0  0  0  0  0  0  0  0
    9.4947   -4.8033   25.5751 C   0  0  0  0  0  0  0  0  0  0  0  0
    7.3541   -1.6721   25.2374 C   0  0  0  0  0  0  0  0  0  0  0  0
    7.3603   -4.6957   26.8884 N   0  0  0  0  0  0  0  0  0  0  0  0
    8.0791   -3.8482   28.8112 N   0  0  0  0  0  0  0  0  0  0  0  0
    9.5109   -2.2542   24.1699 N   0  0  0  0  0  0  0  0  0  0  0  0
    9.3493   -0.4377   25.6887 O   0  0  0  0  0  0  0  0  0  0  0  0
   13.7766   -0.4827   23.0138 O   0  0  0  0  0  0  0  0  0  0  0  0
   12.4136    1.2774   24.2205 O   0  0  0  0  0  0  0  0  0  0  0  0
    6.5304   -6.4998   22.1236 F   0  0  0  0  0  0  0  0  0  0  0  0
   12.6580   -0.1025   23.8532 S   0  0  0  0  0  0  0  0  0  0  0  0
    6.6207   -0.5136   26.3666 Cl  0  0  0  0  0  0  0  0  0  0  0  0
    8.0205   -2.2440   21.9490 H   0  0  0  0  0  0  0  0  0  0  0  0
    6.6994   -4.1240   21.0409 H   0  0  0  0  0  0  0  0  0  0  0  0
    7.9545   -6.6129   24.3042 H   0  0  0  0  0  0  0  0  0  0  0  0
   10.1641   -3.6482   28.3470 H   0  0  0  0  0  0  0  0  0  0  0  0
    6.0105   -4.3341   28.5063 H   0  0  0  0  0  0  0  0  0  0  0  0
   11.5415   -2.7997   25.9193 H   0  0  0  0  0  0  0  0  0  0  0  0
   13.2595   -0.9441   26.1226 H   0  0  0  0  0  0  0  0  0  0  0  0
   11.3547   -0.9566   22.0779 H   0  0  0  0  0  0  0  0  0  0  0  0
   10.3415   -0.0574   23.2383 H   0  0  0  0  0  0  0  0  0  0  0  0
   11.1970   -2.9424   23.2227 H   0  0  0  0  0  0  0  0  0  0  0  0
    9.8533   -5.8448   25.6374 H   0  0  0  0  0  0  0  0  0  0  0  0
   10.4221   -4.2058   25.5631 H   0  0  0  0  0  0  0  0  0  0  0  0
    6.8522   -1.5715   24.2718 H   0  0  0  0  0  0  0  0  0  0  0  0
    7.1893   -2.6669   25.6579 H   0  0  0  0  0  0  0  0  0  0  0  0
    8.0576   -3.4979   29.7596 H   0  0  0  0  0  0  0  0  0  0  0  0
  1  2  2  0  0  0  0
  1  7  1  0  0  0  0
  1 26  1  0  0  0  0
  2  8  1  0  0  0  0
  2 27  1  0  0  0  0
  3  6  1  0  0  0  0
  3  8  2  0  0  0  0
  3 28  1  0  0  0  0
  4  9  2  0  0  0  0
  4 18  1  0  0  0  0
  4 29  1  0  0  0  0
  5 17  2  0  0  0  0
  5 18  1  0  0  0  0
  5 30  1  0  0  0  0
  6  7  2  0  0  0  0
  6 15  1  0  0  0  0
  7 19  1  0  0  0  0
  8 23  1  0  0  0  0
  9 15  1  0  0  0  0
  9 17  1  0  0  0  0
 10 11  2  0  0  0  0
 10 14  1  0  0  0  0
 10 31  1  0  0  0  0
 11 24  1  0  0  0  0
 11 32  1  0  0  0  0
 12 16  1  0  0  0  0
 12 19  1  0  0  0  0
 12 20  2  0  0  0  0
 13 14  1  0  0  0  0
 13 24  1  0  0  0  0
 13 33  1  0  0  0  0
 13 34  1  0  0  0  0
 14 19  1  0  0  0  0
 14 35  1  6  0  0  0
 15 36  1  0  0  0  0
 15 37  1  0  0  0  0
 16 25  1  0  0  0  0
 16 38  1  0  0  0  0
 16 39  1  0  0  0  0
 18 40  1  0  0  0  0
 21 24  2  0  0  0  0
 22 24  2  0  0  0  0
M  END
>  <Chemgauss4 Score>
-6.18057584762573

>  <Number of Confs>
155

$$$$
