SAL-INS-1c7-3
 OpenBabel03242009303D

 49 51  0  0  1  0  0  0  0  0999 V2000
   11.2065   -1.8876   25.3899 C   0  0  0  0  0  0  0  0  0  0  0  0
   10.8290   -3.0644   26.0350 C   0  0  0  0  0  0  0  0  0  0  0  0
    9.5463   -2.2928   23.6867 C   0  0  0  0  0  0  0  0  0  0  0  0
    8.6863   -3.8278   28.3622 C   0  0  0  0  0  0  0  0  0  0  0  0
    7.2168   -5.3151   29.0587 C   0  0  0  0  0  0  0  0  0  0  0  0
   10.5666   -1.5029   24.2154 C   0  0  0  0  0  0  0  0  0  0  0  0
    9.8049   -3.8701   25.5109 C   0  0  0  0  0  0  0  0  0  0  0  0
    9.1515   -3.4764   24.3289 C   0  0  0  0  0  0  0  0  0  0  0  0
    8.6201   -4.9059   27.5115 C   0  0  0  0  0  0  0  0  0  0  0  0
   10.9617   -0.2773   23.5396 C   0  0  0  0  0  0  0  0  0  0  0  0
    6.3307   -5.9862   24.5201 C   0  0  0  0  0  0  0  0  0  0  0  0
    8.0417   -4.2978   23.7196 C   0  0  0  0  0  0  0  0  0  0  0  0
    8.6746   -6.1145   25.2892 C   0  0  0  0  0  0  0  0  0  0  0  0
    9.4083   -5.1459   26.2309 C   0  0  1  0  0  0  0  0  0  0  0  0
   14.1406   -1.4364   22.5213 C   0  0  0  0  0  0  0  0  0  0  0  0
   12.4050   -1.8885   20.7524 C   0  0  0  0  0  0  0  0  0  0  0  0
   12.4143    0.8474   21.8348 C   0  0  0  0  0  0  0  0  0  0  0  0
    5.3342   -5.3263   23.5996 C   0  0  0  0  0  0  0  0  0  0  0  0
   12.6556   -1.5798   22.2212 C   0  0  0  0  0  0  0  0  0  0  0  0
    7.7033   -5.8281   27.9505 N   0  0  0  0  0  0  0  0  0  0  0  0
    7.7815   -4.1040   29.3482 N   0  0  0  0  0  0  0  0  0  0  0  0
    7.6171   -5.4419   24.5361 N   0  0  0  0  0  0  0  0  0  0  0  0
   11.9753   -0.3332   22.5654 N   0  0  0  0  0  0  0  0  0  0  0  0
   10.3626    0.7583   23.8587 O   0  0  0  0  0  0  0  0  0  0  0  0
    5.9752   -6.9474   25.2066 O   0  0  0  0  0  0  0  0  0  0  0  0
    4.5196   -4.0865   24.5462 Cl  0  0  0  0  0  0  0  0  0  0  0  0
   12.0030   -1.2801   25.8117 H   0  0  0  0  0  0  0  0  0  0  0  0
   11.3419   -3.3532   26.9493 H   0  0  0  0  0  0  0  0  0  0  0  0
    9.0479   -1.9883   22.7684 H   0  0  0  0  0  0  0  0  0  0  0  0
    9.2721   -2.9198   28.3590 H   0  0  0  0  0  0  0  0  0  0  0  0
    6.4636   -5.7635   29.6910 H   0  0  0  0  0  0  0  0  0  0  0  0
    7.1872   -3.6424   23.5298 H   0  0  0  0  0  0  0  0  0  0  0  0
    8.3821   -4.7073   22.7611 H   0  0  0  0  0  0  0  0  0  0  0  0
    9.3746   -6.5236   24.5490 H   0  0  0  0  0  0  0  0  0  0  0  0
    8.2719   -6.9624   25.8545 H   0  0  0  0  0  0  0  0  0  0  0  0
   10.3665   -5.7038   26.5354 H   0  0  0  0  0  0  0  0  0  0  0  0
   14.5863   -0.6422   21.9136 H   0  0  0  0  0  0  0  0  0  0  0  0
   14.3141   -1.1970   23.5765 H   0  0  0  0  0  0  0  0  0  0  0  0
   14.6728   -2.3690   22.3038 H   0  0  0  0  0  0  0  0  0  0  0  0
   12.8212   -1.1017   20.1138 H   0  0  0  0  0  0  0  0  0  0  0  0
   11.3319   -1.9599   20.5465 H   0  0  0  0  0  0  0  0  0  0  0  0
   12.8728   -2.8342   20.4565 H   0  0  0  0  0  0  0  0  0  0  0  0
   13.2371    1.3321   22.3807 H   0  0  0  0  0  0  0  0  0  0  0  0
   12.7627    0.5509   20.8345 H   0  0  0  0  0  0  0  0  0  0  0  0
   11.5746    1.5512   21.7370 H   0  0  0  0  0  0  0  0  0  0  0  0
    4.6199   -6.0697   23.2657 H   0  0  0  0  0  0  0  0  0  0  0  0
    5.8679   -4.8734   22.7724 H   0  0  0  0  0  0  0  0  0  0  0  0
   12.2315   -2.3785   22.8394 H   0  0  0  0  0  0  0  0  0  0  0  0
    7.5690   -3.5204   30.1463 H   0  0  0  0  0  0  0  0  0  0  0  0
  1  2  2  0  0  0  0
  1  6  1  0  0  0  0
  1 27  1  0  0  0  0
  2  7  1  0  0  0  0
  2 28  1  0  0  0  0
  3  6  2  0  0  0  0
  3  8  1  0  0  0  0
  3 29  1  0  0  0  0
  4  9  2  0  0  0  0
  4 21  1  0  0  0  0
  4 30  1  0  0  0  0
  5 20  2  0  0  0  0
  5 21  1  0  0  0  0
  5 31  1  0  0  0  0
  6 10  1  0  0  0  0
  7  8  2  0  0  0  0
  7 14  1  0  0  0  0
  8 12  1  0  0  0  0
  9 14  1  0  0  0  0
  9 20  1  0  0  0  0
 10 23  1  0  0  0  0
 10 24  2  0  0  0  0
 11 18  1  0  0  0  0
 11 22  1  0  0  0  0
 11 25  2  0  0  0  0
 12 22  1  0  0  0  0
 12 32  1  0  0  0  0
 12 33  1  0  0  0  0
 13 14  1  0  0  0  0
 13 22  1  0  0  0  0
 13 34  1  0  0  0  0
 13 35  1  0  0  0  0
 14 36  1  1  0  0  0
 15 19  1  0  0  0  0
 15 37  1  0  0  0  0
 15 38  1  0  0  0  0
 15 39  1  0  0  0  0
 16 19  1  0  0  0  0
 16 40  1  0  0  0  0
 16 41  1  0  0  0  0
 16 42  1  0  0  0  0
 17 23  1  0  0  0  0
 17 43  1  0  0  0  0
 17 44  1  0  0  0  0
 17 45  1  0  0  0  0
 18 26  1  0  0  0  0
 18 46  1  0  0  0  0
 18 47  1  0  0  0  0
 19 23  1  0  0  0  0
 19 48  1  0  0  0  0
 21 49  1  0  0  0  0
M  END
>  <Chemgauss4 Score>
-6.71249341964722

>  <Number of Confs>
200

$$$$
