HEI-REL-0c9-6
 OpenBabel03242009303D

 53 56  0  0  1  0  0  0  0  0999 V2000
    6.9448   -1.8552   21.2391 C   0  0  0  0  0  0  0  0  0  0  0  0
    6.5047   -2.0698   22.5421 C   0  0  0  0  0  0  0  0  0  0  0  0
    8.2437   -1.4035   21.0080 C   0  0  0  0  0  0  0  0  0  0  0  0
    7.3623   -1.8308   23.6151 C   0  0  0  0  0  0  0  0  0  0  0  0
    7.7360   -3.3801   28.4274 C   0  0  0  0  0  0  0  0  0  0  0  0
    6.6813   -4.2782   28.3148 C   0  0  0  0  0  0  0  0  0  0  0  0
    7.3010   -4.6799   26.0161 C   0  0  0  0  0  0  0  0  0  0  0  0
    9.1180   -1.1621   22.0785 C   0  0  0  0  0  0  0  0  0  0  0  0
    8.6704   -1.3724   23.3949 C   0  0  0  0  0  0  0  0  0  0  0  0
    8.5876   -3.1330   27.3356 C   0  0  0  0  0  0  0  0  0  0  0  0
    8.3762   -3.7713   26.0904 C   0  0  0  0  0  0  0  0  0  0  0  0
    6.4657   -4.9307   27.1094 C   0  0  0  0  0  0  0  0  0  0  0  0
   12.7597   -0.5011   22.9349 C   0  0  0  0  0  0  0  0  0  0  0  0
    9.7048   -2.1371   27.5198 C   0  0  0  0  0  0  0  0  0  0  0  0
   10.5147   -0.6741   21.7817 C   0  0  0  0  0  0  0  0  0  0  0  0
   10.7907   -2.3253   26.4708 C   0  0  0  0  0  0  0  0  0  0  0  0
   10.6736   -0.1046   24.1981 C   0  0  0  0  0  0  0  0  0  0  0  0
    9.5912   -1.1243   24.5697 C   0  0  2  0  0  0  0  0  0  0  0  0
   10.2058   -2.4376   25.0621 C   0  0  2  0  0  0  0  0  0  0  0  0
   13.3956   -1.3753   21.8819 C   0  0  0  0  0  0  0  0  0  0  0  0
    9.2426   -4.4109   23.8516 C   0  0  0  0  0  0  0  0  0  0  0  0
    9.2084   -3.5144   25.0007 N   0  0  0  0  0  0  0  0  0  0  0  0
   11.3630   -0.4844   22.9654 N   0  0  0  0  0  0  0  0  0  0  0  0
    3.8892   -5.0279   26.4334 N   0  0  0  0  0  0  0  0  0  0  0  0
   13.4791    0.1378   23.7065 O   0  0  0  0  0  0  0  0  0  0  0  0
    5.4617   -6.9952   25.8835 O   0  0  0  0  0  0  0  0  0  0  0  0
    4.8129   -6.5683   28.2802 O   0  0  0  0  0  0  0  0  0  0  0  0
    5.1444   -6.0627   26.9557 S   0  0  0  0  0  0  0  0  0  0  0  0
    6.2773   -2.0399   20.4026 H   0  0  0  0  0  0  0  0  0  0  0  0
    5.4938   -2.4230   22.7232 H   0  0  0  0  0  0  0  0  0  0  0  0
    8.5743   -1.2411   19.9848 H   0  0  0  0  0  0  0  0  0  0  0  0
    7.0051   -2.0031   24.6273 H   0  0  0  0  0  0  0  0  0  0  0  0
    7.8982   -2.8696   29.3739 H   0  0  0  0  0  0  0  0  0  0  0  0
    6.0372   -4.4597   29.1704 H   0  0  0  0  0  0  0  0  0  0  0  0
    7.0894   -5.2088   25.0891 H   0  0  0  0  0  0  0  0  0  0  0  0
    9.2882   -1.1247   27.4626 H   0  0  0  0  0  0  0  0  0  0  0  0
   10.1533   -2.2534   28.5137 H   0  0  0  0  0  0  0  0  0  0  0  0
   10.9943   -1.3831   21.1003 H   0  0  0  0  0  0  0  0  0  0  0  0
   10.4565    0.3002   21.2820 H   0  0  0  0  0  0  0  0  0  0  0  0
   11.5055   -1.4959   26.5259 H   0  0  0  0  0  0  0  0  0  0  0  0
   11.3577   -3.2394   26.6926 H   0  0  0  0  0  0  0  0  0  0  0  0
   10.2248    0.8807   24.0165 H   0  0  0  0  0  0  0  0  0  0  0  0
   11.3831    0.0171   25.0237 H   0  0  0  0  0  0  0  0  0  0  0  0
    9.0033   -0.6895   25.3888 H   0  0  0  0  0  0  0  0  0  0  0  0
   11.0391   -2.6826   24.3912 H   0  0  0  0  0  0  0  0  0  0  0  0
   13.5397   -0.7928   20.9784 H   0  0  0  0  0  0  0  0  0  0  0  0
   12.7434   -2.2186   21.6805 H   0  0  0  0  0  0  0  0  0  0  0  0
   14.3512   -1.7340   22.2495 H   0  0  0  0  0  0  0  0  0  0  0  0
    9.9590   -4.0292   23.1092 H   0  0  0  0  0  0  0  0  0  0  0  0
    9.5533   -5.4142   24.1785 H   0  0  0  0  0  0  0  0  0  0  0  0
    8.2412   -4.4662   23.3999 H   0  0  0  0  0  0  0  0  0  0  0  0
    3.5755   -5.1050   25.4582 H   0  0  0  0  0  0  0  0  0  0  0  0
    3.1346   -4.8130   27.0965 H   0  0  0  0  0  0  0  0  0  0  0  0
  1  2  1  0  0  0  0
  1  3  2  0  0  0  0
  1 29  1  0  0  0  0
  2  4  2  0  0  0  0
  2 30  1  0  0  0  0
  3  8  1  0  0  0  0
  3 31  1  0  0  0  0
  4  9  1  0  0  0  0
  4 32  1  0  0  0  0
  5  6  2  0  0  0  0
  5 10  1  0  0  0  0
  5 33  1  0  0  0  0
  6 12  1  0  0  0  0
  6 34  1  0  0  0  0
  7 11  1  0  0  0  0
  7 12  2  0  0  0  0
  7 35  1  0  0  0  0
  8  9  2  0  0  0  0
  8 15  1  0  0  0  0
  9 18  1  0  0  0  0
 10 11  2  0  0  0  0
 10 14  1  0  0  0  0
 11 22  1  0  0  0  0
 12 28  1  0  0  0  0
 13 20  1  0  0  0  0
 13 23  1  0  0  0  0
 13 25  2  0  0  0  0
 14 16  1  0  0  0  0
 14 36  1  0  0  0  0
 14 37  1  0  0  0  0
 15 23  1  0  0  0  0
 15 38  1  0  0  0  0
 15 39  1  0  0  0  0
 16 19  1  0  0  0  0
 16 40  1  0  0  0  0
 16 41  1  0  0  0  0
 17 18  1  0  0  0  0
 17 23  1  0  0  0  0
 17 42  1  0  0  0  0
 17 43  1  0  0  0  0
 18 19  1  0  0  0  0
 18 44  1  1  0  0  0
 19 22  1  0  0  0  0
 19 45  1  6  0  0  0
 20 46  1  0  0  0  0
 20 47  1  0  0  0  0
 20 48  1  0  0  0  0
 21 22  1  0  0  0  0
 21 49  1  0  0  0  0
 21 50  1  0  0  0  0
 21 51  1  0  0  0  0
 24 28  1  0  0  0  0
 24 52  1  0  0  0  0
 24 53  1  0  0  0  0
 26 28  2  0  0  0  0
 27 28  2  0  0  0  0
M  END
>  <Chemgauss4 Score>
-4.51810216903687

>  <Number of Confs>
15

$$$$
