DAR-DIA-842-11
 OpenBabel03242009303D

 28 29  0  0  0  0  0  0  0  0999 V2000
    8.4392   -5.8687   27.6267 C   0  0  0  0  0  0  0  0  0  0  0  0
    8.6436   -5.1571   26.4497 C   0  0  0  0  0  0  0  0  0  0  0  0
    8.2003   -5.1491   28.7864 C   0  0  0  0  0  0  0  0  0  0  0  0
   10.2934   -0.2627   24.1853 C   0  0  0  0  0  0  0  0  0  0  0  0
    8.3569   -3.1419   27.6797 C   0  0  0  0  0  0  0  0  0  0  0  0
   11.6576   -1.4900   22.9739 C   0  0  0  0  0  0  0  0  0  0  0  0
   10.3461   -1.4121   23.3742 C   0  0  0  0  0  0  0  0  0  0  0  0
    8.6034   -3.7674   26.4682 C   0  0  0  0  0  0  0  0  0  0  0  0
    9.0637   -3.5000   24.0061 C   0  0  0  0  0  0  0  0  0  0  0  0
   13.6823   -0.0818   23.4169 C   0  0  0  0  0  0  0  0  0  0  0  0
    9.2197   -2.3491   23.0247 C   0  0  0  0  0  0  0  0  0  0  0  0
    8.1537   -3.7992   28.8434 N   0  0  0  0  0  0  0  0  0  0  0  0
   11.4774    0.3457   24.2950 N   0  0  0  0  0  0  0  0  0  0  0  0
   12.2864   -0.4243   23.5476 N   0  0  0  0  0  0  0  0  0  0  0  0
    8.8046   -3.0278   25.3053 N   0  0  0  0  0  0  0  0  0  0  0  0
    9.1619   -4.6734   23.6615 O   0  0  0  0  0  0  0  0  0  0  0  0
    8.4660   -6.9523   27.6358 H   0  0  0  0  0  0  0  0  0  0  0  0
    8.8332   -5.6951   25.5246 H   0  0  0  0  0  0  0  0  0  0  0  0
    8.0355   -5.6573   29.7308 H   0  0  0  0  0  0  0  0  0  0  0  0
    9.4430    0.1584   24.7028 H   0  0  0  0  0  0  0  0  0  0  0  0
    8.3134   -2.0596   27.7576 H   0  0  0  0  0  0  0  0  0  0  0  0
   12.1843   -2.1963   22.3464 H   0  0  0  0  0  0  0  0  0  0  0  0
   13.7882    0.5776   22.5514 H   0  0  0  0  0  0  0  0  0  0  0  0
   14.0199    0.4235   24.3261 H   0  0  0  0  0  0  0  0  0  0  0  0
   14.2670   -0.9953   23.2767 H   0  0  0  0  0  0  0  0  0  0  0  0
    8.2755   -1.7911   22.9844 H   0  0  0  0  0  0  0  0  0  0  0  0
    9.3832   -2.7610   22.0207 H   0  0  0  0  0  0  0  0  0  0  0  0
    8.7578   -2.0065   25.4100 H   0  0  0  0  0  0  0  0  0  0  0  0
  1  2  2  0  0  0  0
  1  3  1  0  0  0  0
  1 17  1  0  0  0  0
  2  8  1  0  0  0  0
  2 18  1  0  0  0  0
  3 12  2  0  0  0  0
  3 19  1  0  0  0  0
  4  7  1  0  0  0  0
  4 13  2  0  0  0  0
  4 20  1  0  0  0  0
  5  8  2  0  0  0  0
  5 12  1  0  0  0  0
  5 21  1  0  0  0  0
  6  7  2  0  0  0  0
  6 14  1  0  0  0  0
  6 22  1  0  0  0  0
  7 11  1  0  0  0  0
  8 15  1  0  0  0  0
  9 11  1  0  0  0  0
  9 15  1  0  0  0  0
  9 16  2  0  0  0  0
 10 14  1  0  0  0  0
 10 23  1  0  0  0  0
 10 24  1  0  0  0  0
 10 25  1  0  0  0  0
 11 26  1  0  0  0  0
 11 27  1  0  0  0  0
 13 14  1  0  0  0  0
 15 28  1  0  0  0  0
M  END
>  <Chemgauss4 Score>
-4.82220315933228

>  <Number of Confs>
44

$$$$
