GIA-UNK-995-10
 OpenBabel03242009303D

 35 36  0  0  0  0  0  0  0  0999 V2000
   13.8315   -0.1124   23.0977 C   0  0  0  0  0  0  0  0  0  0  0  0
   13.5473   -1.2977   22.4196 C   0  0  0  0  0  0  0  0  0  0  0  0
   12.7920    0.6674   23.6048 C   0  0  0  0  0  0  0  0  0  0  0  0
   12.2237   -1.7032   22.2484 C   0  0  0  0  0  0  0  0  0  0  0  0
   11.4684    0.2620   23.4336 C   0  0  0  0  0  0  0  0  0  0  0  0
   11.1842   -0.9234   22.7554 C   0  0  0  0  0  0  0  0  0  0  0  0
    9.8005   -1.3473   22.5764 C   0  0  0  0  0  0  0  0  0  0  0  0
    7.9672   -4.4638   26.1834 C   0  0  0  0  0  0  0  0  0  0  0  0
   10.0620   -4.0774   24.8891 C   0  0  0  0  0  0  0  0  0  0  0  0
    7.8000   -4.1570   23.7245 C   0  0  0  0  0  0  0  0  0  0  0  0
   10.0444   -2.5566   24.7326 C   0  0  0  0  0  0  0  0  0  0  0  0
    7.8509   -2.6336   23.6197 C   0  0  0  0  0  0  0  0  0  0  0  0
    8.6689   -4.7043   24.8567 C   0  0  0  0  0  0  0  0  0  0  0  0
    8.1497   -4.7425   28.9056 C   0  0  0  0  0  0  0  0  0  0  0  0
    9.2410   -2.1648   23.5752 N   0  0  0  0  0  0  0  0  0  0  0  0
    9.1673   -0.9888   21.5819 O   0  0  0  0  0  0  0  0  0  0  0  0
    7.2479   -3.4945   26.3929 O   0  0  0  0  0  0  0  0  0  0  0  0
    9.0904   -3.7606   28.9027 F   0  0  0  0  0  0  0  0  0  0  0  0
    8.2838   -5.7109   27.3891 S   0  0  0  0  0  0  0  0  0  0  0  0
   14.8620    0.2033   23.2309 H   0  0  0  0  0  0  0  0  0  0  0  0
   14.3568   -1.9047   22.0247 H   0  0  0  0  0  0  0  0  0  0  0  0
   13.0133    1.5902   24.1330 H   0  0  0  0  0  0  0  0  0  0  0  0
   12.0136   -2.6287   21.7184 H   0  0  0  0  0  0  0  0  0  0  0  0
   10.6665    0.8776   23.8329 H   0  0  0  0  0  0  0  0  0  0  0  0
   10.6571   -4.5026   24.0702 H   0  0  0  0  0  0  0  0  0  0  0  0
   10.5797   -4.3366   25.8207 H   0  0  0  0  0  0  0  0  0  0  0  0
    6.7582   -4.4743   23.8536 H   0  0  0  0  0  0  0  0  0  0  0  0
    8.1459   -4.5846   22.7745 H   0  0  0  0  0  0  0  0  0  0  0  0
    9.6042   -2.0807   25.6166 H   0  0  0  0  0  0  0  0  0  0  0  0
   11.0688   -2.1822   24.6365 H   0  0  0  0  0  0  0  0  0  0  0  0
    7.2903   -2.3118   22.7382 H   0  0  0  0  0  0  0  0  0  0  0  0
    7.3754   -2.1650   24.4889 H   0  0  0  0  0  0  0  0  0  0  0  0
    8.7519   -5.7806   24.7617 H   0  0  0  0  0  0  0  0  0  0  0  0
    8.3214   -5.3702   29.7839 H   0  0  0  0  0  0  0  0  0  0  0  0
    7.1679   -4.2673   28.9776 H   0  0  0  0  0  0  0  0  0  0  0  0
  1  2  1  0  0  0  0
  1  3  2  0  0  0  0
  1 20  1  0  0  0  0
  2  4  2  0  0  0  0
  2 21  1  0  0  0  0
  3  5  1  0  0  0  0
  3 22  1  0  0  0  0
  4  6  1  0  0  0  0
  4 23  1  0  0  0  0
  5  6  2  0  0  0  0
  5 24  1  0  0  0  0
  6  7  1  0  0  0  0
  7 15  1  0  0  0  0
  7 16  2  0  0  0  0
  8 13  1  0  0  0  0
  8 17  2  0  0  0  0
  8 19  1  0  0  0  0
  9 11  1  0  0  0  0
  9 13  1  0  0  0  0
  9 25  1  0  0  0  0
  9 26  1  0  0  0  0
 10 12  1  0  0  0  0
 10 13  1  0  0  0  0
 10 27  1  0  0  0  0
 10 28  1  0  0  0  0
 11 15  1  0  0  0  0
 11 29  1  0  0  0  0
 11 30  1  0  0  0  0
 12 15  1  0  0  0  0
 12 31  1  0  0  0  0
 12 32  1  0  0  0  0
 13 33  1  0  0  0  0
 14 18  1  0  0  0  0
 14 19  1  0  0  0  0
 14 34  1  0  0  0  0
 14 35  1  0  0  0  0
M  END
>  <Chemgauss4 Score>
-5.1372184753418

>  <Number of Confs>
200

$$$$
