CHR-SOS-363-5
 OpenBabel03242009303D

 43 45  0  0  0  0  0  0  0  0999 V2000
    7.5518   -5.2318   28.0312 C   0  0  0  0  0  0  0  0  0  0  0  0
   11.2070   -4.4212   24.1893 C   0  0  0  0  0  0  0  0  0  0  0  0
    5.9192   -0.9278   18.4702 C   0  0  0  0  0  0  0  0  0  0  0  0
    6.1048   -1.5170   19.7159 C   0  0  0  0  0  0  0  0  0  0  0  0
   10.0718   -4.4215   24.9998 C   0  0  0  0  0  0  0  0  0  0  0  0
   11.7884   -3.2133   23.8039 C   0  0  0  0  0  0  0  0  0  0  0  0
   10.0994   -2.0060   25.0394 C   0  0  0  0  0  0  0  0  0  0  0  0
    6.7419    0.1324   18.1252 C   0  0  0  0  0  0  0  0  0  0  0  0
    5.9048   -5.8720   26.3500 C   0  0  0  0  0  0  0  0  0  0  0  0
    7.8635    0.0302   20.1276 C   0  0  0  0  0  0  0  0  0  0  0  0
    5.7175   -4.7996   24.3270 C   0  0  0  0  0  0  0  0  0  0  0  0
    6.9472   -5.0513   26.7496 C   0  0  0  0  0  0  0  0  0  0  0  0
    7.0933   -1.0347   20.5666 C   0  0  0  0  0  0  0  0  0  0  0  0
    6.7509   -3.9284   24.6318 C   0  0  0  0  0  0  0  0  0  0  0  0
    9.5180   -3.2140   25.4249 C   0  0  0  0  0  0  0  0  0  0  0  0
    7.3723   -4.0635   25.8683 C   0  0  0  0  0  0  0  0  0  0  0  0
   11.2346   -2.0057   24.2289 C   0  0  0  0  0  0  0  0  0  0  0  0
    6.6171   -2.6869   22.4273 C   0  0  0  0  0  0  0  0  0  0  0  0
    8.0429   -5.3783   29.0725 N   0  0  0  0  0  0  0  0  0  0  0  0
    7.7127    0.6283   18.9247 N   0  0  0  0  0  0  0  0  0  0  0  0
    5.2767   -5.7713   25.1572 N   0  0  0  0  0  0  0  0  0  0  0  0
   13.2735   -1.0506   22.8022 N   0  0  0  0  0  0  0  0  0  0  0  0
    7.3057   -1.6133   21.8402 N   0  0  0  0  0  0  0  0  0  0  0  0
    7.1431   -2.9529   23.7155 N   0  0  0  0  0  0  0  0  0  0  0  0
    5.6954   -3.3078   21.9077 O   0  0  0  0  0  0  0  0  0  0  0  0
   11.0286    0.2139   22.8856 O   0  0  0  0  0  0  0  0  0  0  0  0
   12.4919    0.1631   24.9359 O   0  0  0  0  0  0  0  0  0  0  0  0
    8.4096   -3.2142   26.2150 O   0  0  0  0  0  0  0  0  0  0  0  0
   11.9643   -0.4937   23.7482 S   0  0  0  0  0  0  0  0  0  0  0  0
   11.6379   -5.3614   23.8582 H   0  0  0  0  0  0  0  0  0  0  0  0
    5.1548   -1.2873   17.7909 H   0  0  0  0  0  0  0  0  0  0  0  0
    5.4741   -2.3505   20.0136 H   0  0  0  0  0  0  0  0  0  0  0  0
    9.6235   -5.3657   25.2965 H   0  0  0  0  0  0  0  0  0  0  0  0
   12.6732   -3.2243   23.1732 H   0  0  0  0  0  0  0  0  0  0  0  0
    9.6636   -1.0673   25.3731 H   0  0  0  0  0  0  0  0  0  0  0  0
    6.6367    0.6267   17.1651 H   0  0  0  0  0  0  0  0  0  0  0  0
    5.5255   -6.6627   26.9913 H   0  0  0  0  0  0  0  0  0  0  0  0
    8.6507    0.4504   20.7466 H   0  0  0  0  0  0  0  0  0  0  0  0
    5.1936   -4.7443   23.3773 H   0  0  0  0  0  0  0  0  0  0  0  0
   13.2231   -0.9188   21.7846 H   0  0  0  0  0  0  0  0  0  0  0  0
   14.2212   -0.9546   23.1868 H   0  0  0  0  0  0  0  0  0  0  0  0
    8.0483   -1.2009   22.3991 H   0  0  0  0  0  0  0  0  0  0  0  0
    7.9140   -2.3392   24.0006 H   0  0  0  0  0  0  0  0  0  0  0  0
  1 12  1  0  0  0  0
  1 19  3  0  0  0  0
  2  5  2  0  0  0  0
  2  6  1  0  0  0  0
  2 30  1  0  0  0  0
  3  4  2  0  0  0  0
  3  8  1  0  0  0  0
  3 31  1  0  0  0  0
  4 13  1  0  0  0  0
  4 32  1  0  0  0  0
  5 15  1  0  0  0  0
  5 33  1  0  0  0  0
  6 17  2  0  0  0  0
  6 34  1  0  0  0  0
  7 15  2  0  0  0  0
  7 17  1  0  0  0  0
  7 35  1  0  0  0  0
  8 20  2  0  0  0  0
  8 36  1  0  0  0  0
  9 12  1  0  0  0  0
  9 21  2  0  0  0  0
  9 37  1  0  0  0  0
 10 13  2  0  0  0  0
 10 20  1  0  0  0  0
 10 38  1  0  0  0  0
 11 14  2  0  0  0  0
 11 21  1  0  0  0  0
 11 39  1  0  0  0  0
 12 16  2  0  0  0  0
 13 23  1  0  0  0  0
 14 16  1  0  0  0  0
 14 24  1  0  0  0  0
 15 28  1  0  0  0  0
 16 28  1  0  0  0  0
 17 29  1  0  0  0  0
 18 23  1  0  0  0  0
 18 24  1  0  0  0  0
 18 25  2  0  0  0  0
 22 29  1  0  0  0  0
 22 40  1  0  0  0  0
 22 41  1  0  0  0  0
 23 42  1  0  0  0  0
 24 43  1  0  0  0  0
 26 29  2  0  0  0  0
 27 29  2  0  0  0  0
M  END
>  <Chemgauss4 Score>
-5.54145479202271

>  <Number of Confs>
200

$$$$
