KIM-UNI-60f-8
 OpenBabel03242009303D

 40 42  0  0  1  0  0  0  0  0999 V2000
    5.9065   -5.3315   27.4666 C   0  0  0  0  0  0  0  0  0  0  0  0
    6.0688   -4.9268   28.7818 C   0  0  0  0  0  0  0  0  0  0  0  0
    8.0462   -3.8595   28.3031 C   0  0  0  0  0  0  0  0  0  0  0  0
    6.8830   -4.9644   26.5474 C   0  0  0  0  0  0  0  0  0  0  0  0
    7.9766   -4.2143   26.9656 C   0  0  0  0  0  0  0  0  0  0  0  0
   11.0091   -3.2024   24.2081 C   0  0  0  0  0  0  0  0  0  0  0  0
   11.1169   -4.3408   24.8929 C   0  0  0  0  0  0  0  0  0  0  0  0
    9.9194   -2.2663   24.4163 C   0  0  0  0  0  0  0  0  0  0  0  0
    8.9694   -2.5921   25.3319 C   0  0  0  0  0  0  0  0  0  0  0  0
   10.0823   -4.7182   25.8820 C   0  0  0  0  0  0  0  0  0  0  0  0
   12.0605    0.0514   23.6988 C   0  0  0  0  0  0  0  0  0  0  0  0
    7.8892   -1.5758   25.6649 C   0  0  0  0  0  0  0  0  0  0  0  0
    8.2768   -0.1489   25.2825 C   0  0  0  0  0  0  0  0  0  0  0  0
    8.8028   -0.0980   23.8575 C   0  0  0  0  0  0  0  0  0  0  0  0
    6.7335   -5.3877   25.1230 C   0  0  0  0  0  0  0  0  0  0  0  0
   10.9982   -0.5998   22.8435 C   0  0  0  0  0  0  0  0  0  0  0  0
    7.1173   -4.1976   29.2253 N   0  0  0  0  0  0  0  0  0  0  0  0
    9.0153   -3.8084   26.0516 N   0  0  0  0  0  0  0  0  0  0  0  0
    9.8973   -1.0599   23.6893 N   0  0  0  0  0  0  0  0  0  0  0  0
   13.3245   -0.1016   23.1707 N   0  0  0  0  0  0  0  0  0  0  0  0
   10.2065   -5.8077   26.4434 O   0  0  0  0  0  0  0  0  0  0  0  0
   11.8223    0.6847   24.7235 O   0  0  0  0  0  0  0  0  0  0  0  0
    5.0415   -5.9164   27.1728 H   0  0  0  0  0  0  0  0  0  0  0  0
    5.3353   -5.1875   29.5376 H   0  0  0  0  0  0  0  0  0  0  0  0
    8.8750   -3.2741   28.6901 H   0  0  0  0  0  0  0  0  0  0  0  0
   11.7852   -2.9717   23.4867 H   0  0  0  0  0  0  0  0  0  0  0  0
   11.9451   -5.0216   24.7328 H   0  0  0  0  0  0  0  0  0  0  0  0
    6.9656   -1.8638   25.1474 H   0  0  0  0  0  0  0  0  0  0  0  0
    7.6745   -1.5742   26.7398 H   0  0  0  0  0  0  0  0  0  0  0  0
    7.4075    0.5106   25.3842 H   0  0  0  0  0  0  0  0  0  0  0  0
    9.0430    0.2270   25.9730 H   0  0  0  0  0  0  0  0  0  0  0  0
    8.0033   -0.3374   23.1461 H   0  0  0  0  0  0  0  0  0  0  0  0
    9.1414    0.9229   23.6454 H   0  0  0  0  0  0  0  0  0  0  0  0
    6.1790   -4.6298   24.5577 H   0  0  0  0  0  0  0  0  0  0  0  0
    7.7116   -5.5322   24.6478 H   0  0  0  0  0  0  0  0  0  0  0  0
    6.1977   -6.3420   25.0473 H   0  0  0  0  0  0  0  0  0  0  0  0
   11.4016   -1.4658   22.3117 H   0  0  0  0  0  0  0  0  0  0  0  0
   10.6075    0.1289   22.1279 H   0  0  0  0  0  0  0  0  0  0  0  0
   13.4690   -0.6039   22.3011 H   0  0  0  0  0  0  0  0  0  0  0  0
   14.1515    0.2770   23.6213 H   0  0  0  0  0  0  0  0  0  0  0  0
  1  2  2  0  0  0  0
  1  4  1  0  0  0  0
  1 23  1  0  0  0  0
  2 17  1  0  0  0  0
  2 24  1  0  0  0  0
  3  5  1  0  0  0  0
  3 17  2  0  0  0  0
  3 25  1  0  0  0  0
  4  5  2  0  0  0  0
  4 15  1  0  0  0  0
  5 18  1  0  0  0  0
  6  7  2  0  0  0  0
  6  8  1  0  0  0  0
  6 26  1  0  0  0  0
  7 10  1  0  0  0  0
  7 27  1  0  0  0  0
  8  9  2  0  0  0  0
  8 19  1  0  0  0  0
  9 12  1  0  0  0  0
  9 18  1  0  0  0  0
 10 18  1  0  0  0  0
 10 21  2  0  0  0  0
 11 16  1  0  0  0  0
 11 20  1  0  0  0  0
 11 22  2  0  0  0  0
 12 13  1  0  0  0  0
 12 28  1  0  0  0  0
 12 29  1  0  0  0  0
 13 14  1  0  0  0  0
 13 30  1  0  0  0  0
 13 31  1  0  0  0  0
 14 19  1  0  0  0  0
 14 32  1  0  0  0  0
 14 33  1  0  0  0  0
 15 34  1  0  0  0  0
 15 35  1  0  0  0  0
 15 36  1  0  0  0  0
 16 19  1  0  0  0  0
 16 37  1  0  0  0  0
 16 38  1  0  0  0  0
 20 39  1  0  0  0  0
 20 40  1  0  0  0  0
M  END
>  <Chemgauss4 Score>
-5.45388507843018

>  <Number of Confs>
20

$$$$
