KIM-UNI-60f-7
 OpenBabel03242009303D

 41 43  0  0  1  0  0  0  0  0999 V2000
   12.2421   -0.3454   22.3358 C   0  0  0  0  0  0  0  0  0  0  0  0
   13.0819    0.2252   23.2787 C   0  0  0  0  0  0  0  0  0  0  0  0
   11.6714   -0.3332   25.0040 C   0  0  0  0  0  0  0  0  0  0  0  0
   11.0637   -0.9319   22.7840 C   0  0  0  0  0  0  0  0  0  0  0  0
   10.7654   -0.9298   24.1420 C   0  0  0  0  0  0  0  0  0  0  0  0
    7.1315   -2.5959   25.4993 C   0  0  0  0  0  0  0  0  0  0  0  0
    7.1641   -1.3039   25.1735 C   0  0  0  0  0  0  0  0  0  0  0  0
    8.3117   -3.4403   25.4628 C   0  0  0  0  0  0  0  0  0  0  0  0
    9.4805   -2.8795   25.0551 C   0  0  0  0  0  0  0  0  0  0  0  0
    8.4254   -0.6818   24.7118 C   0  0  0  0  0  0  0  0  0  0  0  0
    7.0351   -4.9683   27.9460 C   0  0  0  0  0  0  0  0  0  0  0  0
   10.7566   -3.7021   25.1298 C   0  0  0  0  0  0  0  0  0  0  0  0
   10.6467   -4.8844   26.0903 C   0  0  0  0  0  0  0  0  0  0  0  0
    9.3760   -5.6754   25.8271 C   0  0  0  0  0  0  0  0  0  0  0  0
   10.1396   -1.5539   21.7892 C   0  0  0  0  0  0  0  0  0  0  0  0
    7.0172   -5.3609   26.4877 C   0  0  0  0  0  0  0  0  0  0  0  0
   12.8260    0.2465   24.6059 N   0  0  0  0  0  0  0  0  0  0  0  0
    6.4610   -5.7620   28.7974 N   0  0  0  0  0  0  0  0  0  0  0  0
    9.5572   -1.5250   24.6567 N   0  0  0  0  0  0  0  0  0  0  0  0
    8.2104   -4.7858   25.8676 N   0  0  0  0  0  0  0  0  0  0  0  0
    7.6713   -3.8021   28.2820 N   0  0  0  0  0  0  0  0  0  0  0  0
    8.3815    0.5014   24.3714 O   0  0  0  0  0  0  0  0  0  0  0  0
   12.5040   -0.3300   21.2834 H   0  0  0  0  0  0  0  0  0  0  0  0
   14.0131    0.6957   22.9806 H   0  0  0  0  0  0  0  0  0  0  0  0
   11.4949   -0.3002   26.0751 H   0  0  0  0  0  0  0  0  0  0  0  0
    6.1840   -3.0122   25.8231 H   0  0  0  0  0  0  0  0  0  0  0  0
    6.2751   -0.6855   25.2195 H   0  0  0  0  0  0  0  0  0  0  0  0
   11.0022   -4.0605   24.1224 H   0  0  0  0  0  0  0  0  0  0  0  0
   11.5969   -3.0863   25.4713 H   0  0  0  0  0  0  0  0  0  0  0  0
   11.5224   -5.5339   25.9791 H   0  0  0  0  0  0  0  0  0  0  0  0
   10.6493   -4.5232   27.1271 H   0  0  0  0  0  0  0  0  0  0  0  0
    9.4231   -6.1601   24.8445 H   0  0  0  0  0  0  0  0  0  0  0  0
    9.2936   -6.4648   26.5833 H   0  0  0  0  0  0  0  0  0  0  0  0
   10.3929   -2.6105   21.6444 H   0  0  0  0  0  0  0  0  0  0  0  0
    9.0963   -1.4868   22.1213 H   0  0  0  0  0  0  0  0  0  0  0  0
   10.1994   -1.0439   20.8197 H   0  0  0  0  0  0  0  0  0  0  0  0
    6.1328   -4.9596   25.9861 H   0  0  0  0  0  0  0  0  0  0  0  0
    7.0532   -6.4470   26.3716 H   0  0  0  0  0  0  0  0  0  0  0  0
    6.0738   -6.5652   28.2897 H   0  0  0  0  0  0  0  0  0  0  0  0
    8.1128   -3.2229   27.5760 H   0  0  0  0  0  0  0  0  0  0  0  0
    7.7205   -3.4769   29.2417 H   0  0  0  0  0  0  0  0  0  0  0  0
  1  2  2  0  0  0  0
  1  4  1  0  0  0  0
  1 23  1  0  0  0  0
  2 17  1  0  0  0  0
  2 24  1  0  0  0  0
  3  5  1  0  0  0  0
  3 17  2  0  0  0  0
  3 25  1  0  0  0  0
  4  5  2  0  0  0  0
  4 15  1  0  0  0  0
  5 19  1  0  0  0  0
  6  7  2  0  0  0  0
  6  8  1  0  0  0  0
  6 26  1  0  0  0  0
  7 10  1  0  0  0  0
  7 27  1  0  0  0  0
  8  9  2  0  0  0  0
  8 20  1  0  0  0  0
  9 12  1  0  0  0  0
  9 19  1  0  0  0  0
 10 19  1  0  0  0  0
 10 22  2  0  0  0  0
 11 16  1  0  0  0  0
 11 18  2  0  0  0  0
 11 21  1  0  0  0  0
 12 13  1  0  0  0  0
 12 28  1  0  0  0  0
 12 29  1  0  0  0  0
 13 14  1  0  0  0  0
 13 30  1  0  0  0  0
 13 31  1  0  0  0  0
 14 20  1  0  0  0  0
 14 32  1  0  0  0  0
 14 33  1  0  0  0  0
 15 34  1  0  0  0  0
 15 35  1  0  0  0  0
 15 36  1  0  0  0  0
 16 20  1  0  0  0  0
 16 37  1  0  0  0  0
 16 38  1  0  0  0  0
 18 39  1  0  0  0  0
 21 40  1  0  0  0  0
 21 41  1  0  0  0  0
M  END
>  <Chemgauss4 Score>
-5.22088003158569

>  <Number of Confs>
13

$$$$
