NIM-UNI-36e-2
 OpenBabel03242009303D

 47 50  0  0  1  0  0  0  0  0999 V2000
   14.2257   -0.2433   22.6011 C   0  0  0  0  0  0  0  0  0  0  0  0
   13.4011    0.6279   23.3128 C   0  0  0  0  0  0  0  0  0  0  0  0
   13.6848   -1.3782   21.9967 C   0  0  0  0  0  0  0  0  0  0  0  0
    7.0179   -6.3367   28.2781 C   0  0  0  0  0  0  0  0  0  0  0  0
   12.0356    0.3643   23.4203 C   0  0  0  0  0  0  0  0  0  0  0  0
   12.3193   -1.6418   22.1042 C   0  0  0  0  0  0  0  0  0  0  0  0
    7.6932   -6.0103   27.1073 C   0  0  0  0  0  0  0  0  0  0  0  0
    7.0349   -5.4173   29.3145 C   0  0  0  0  0  0  0  0  0  0  0  0
    8.3124   -3.9412   28.1032 C   0  0  0  0  0  0  0  0  0  0  0  0
   11.4947   -0.7706   22.8160 C   0  0  0  0  0  0  0  0  0  0  0  0
    8.3555   -4.7915   27.0101 C   0  0  0  0  0  0  0  0  0  0  0  0
    9.6844   -5.3333   24.9220 C   0  0  0  0  0  0  0  0  0  0  0  0
    7.4637   -1.2745   25.6235 C   0  0  0  0  0  0  0  0  0  0  0  0
    7.3644   -2.9323   23.7142 C   0  0  0  0  0  0  0  0  0  0  0  0
    8.3389   -2.7616   22.5404 C   0  0  0  0  0  0  0  0  0  0  0  0
   10.1571   -3.1471   24.1414 C   0  0  1  0  0  0  0  0  0  0  0  0
    9.2043   -3.0392   25.3555 C   0  0  2  0  0  0  0  0  0  0  0  0
    6.2892   -0.5621   25.0015 C   0  0  0  0  0  0  0  0  0  0  0  0
   10.0250   -1.0552   22.9315 C   0  0  0  0  0  0  0  0  0  0  0  0
    7.6670   -4.2237   29.2570 N   0  0  0  0  0  0  0  0  0  0  0  0
   10.2855   -4.5660   23.9149 N   0  0  0  0  0  0  0  0  0  0  0  0
    9.0576   -4.4283   25.8214 N   0  0  0  0  0  0  0  0  0  0  0  0
    7.9358   -2.4054   24.9532 N   0  0  0  0  0  0  0  0  0  0  0  0
    9.7411   -2.4896   22.9001 N   0  0  0  0  0  0  0  0  0  0  0  0
    9.7525   -6.5547   24.9716 O   0  0  0  0  0  0  0  0  0  0  0  0
    7.9478   -0.8325   26.6684 O   0  0  0  0  0  0  0  0  0  0  0  0
   15.2887   -0.0371   22.5163 H   0  0  0  0  0  0  0  0  0  0  0  0
   13.8218    1.5122   23.7825 H   0  0  0  0  0  0  0  0  0  0  0  0
   14.3263   -2.0561   21.4416 H   0  0  0  0  0  0  0  0  0  0  0  0
    6.4948   -7.2811   28.3761 H   0  0  0  0  0  0  0  0  0  0  0  0
   11.4007    1.0486   23.9770 H   0  0  0  0  0  0  0  0  0  0  0  0
   11.9067   -2.5285   21.6302 H   0  0  0  0  0  0  0  0  0  0  0  0
    7.6970   -6.7122   26.2776 H   0  0  0  0  0  0  0  0  0  0  0  0
    6.5239   -5.6249   30.2489 H   0  0  0  0  0  0  0  0  0  0  0  0
    8.8100   -2.9760   28.0875 H   0  0  0  0  0  0  0  0  0  0  0  0
    6.4104   -2.4408   23.4607 H   0  0  0  0  0  0  0  0  0  0  0  0
    7.1158   -3.9995   23.8728 H   0  0  0  0  0  0  0  0  0  0  0  0
    8.2967   -3.6957   21.9278 H   0  0  0  0  0  0  0  0  0  0  0  0
    7.9508   -1.9627   21.8566 H   0  0  0  0  0  0  0  0  0  0  0  0
   11.1794   -2.7567   24.4579 H   0  0  0  0  0  0  0  0  0  0  0  0
    9.6611   -2.4886   26.1482 H   0  0  0  0  0  0  0  0  0  0  0  0
    5.3698   -0.9828   25.3952 H   0  0  0  0  0  0  0  0  0  0  0  0
    6.3247   -0.6913   23.9244 H   0  0  0  0  0  0  0  0  0  0  0  0
    6.3465    0.4946   25.2423 H   0  0  0  0  0  0  0  0  0  0  0  0
    9.6264   -0.6529   23.8692 H   0  0  0  0  0  0  0  0  0  0  0  0
    9.4684   -0.5858   22.1136 H   0  0  0  0  0  0  0  0  0  0  0  0
   10.7643   -4.9684   23.1053 H   0  0  0  0  0  0  0  0  0  0  0  0
  1  2  1  0  0  0  0
  1  3  2  0  0  0  0
  1 27  1  0  0  0  0
  2  5  2  0  0  0  0
  2 28  1  0  0  0  0
  3  6  1  0  0  0  0
  3 29  1  0  0  0  0
  4  7  2  0  0  0  0
  4  8  1  0  0  0  0
  4 30  1  0  0  0  0
  5 10  1  0  0  0  0
  5 31  1  0  0  0  0
  6 10  2  0  0  0  0
  6 32  1  0  0  0  0
  7 11  1  0  0  0  0
  7 33  1  0  0  0  0
  8 20  2  0  0  0  0
  8 34  1  0  0  0  0
  9 11  2  0  0  0  0
  9 20  1  0  0  0  0
  9 35  1  0  0  0  0
 10 19  1  0  0  0  0
 11 22  1  0  0  0  0
 12 21  1  0  0  0  0
 12 22  1  0  0  0  0
 12 25  2  0  0  0  0
 13 18  1  0  0  0  0
 13 23  1  0  0  0  0
 13 26  2  0  0  0  0
 14 15  1  0  0  0  0
 14 23  1  0  0  0  0
 14 36  1  0  0  0  0
 14 37  1  0  0  0  0
 15 24  1  0  0  0  0
 15 38  1  0  0  0  0
 15 39  1  0  0  0  0
 16 17  1  0  0  0  0
 16 21  1  0  0  0  0
 16 24  1  0  0  0  0
 16 40  1  1  0  0  0
 17 22  1  0  0  0  0
 17 23  1  0  0  0  0
 17 41  1  1  0  0  0
 18 42  1  0  0  0  0
 18 43  1  0  0  0  0
 18 44  1  0  0  0  0
 19 24  1  0  0  0  0
 19 45  1  0  0  0  0
 19 46  1  0  0  0  0
 21 47  1  0  0  0  0
M  END
>  <Chemgauss4 Score>
-6.49366617202759

>  <Number of Confs>
32

$$$$
