SAL-INS-cba-6
 OpenBabel03242009303D

 40 43  0  0  0  0  0  0  0  0999 V2000
   11.3371   -2.4491   23.1664 C   0  0  0  0  0  0  0  0  0  0  0  0
    6.4359   -2.1912   25.2519 C   0  0  0  0  0  0  0  0  0  0  0  0
    5.7915   -1.7214   26.3719 C   0  0  0  0  0  0  0  0  0  0  0  0
   10.5652   -5.0720   25.5588 C   0  0  0  0  0  0  0  0  0  0  0  0
    7.3698    1.3132   20.9978 C   0  0  0  0  0  0  0  0  0  0  0  0
    6.3866   -0.1795   19.7087 C   0  0  0  0  0  0  0  0  0  0  0  0
   10.2706   -3.9108   26.2396 C   0  0  0  0  0  0  0  0  0  0  0  0
   11.0097   -3.4040   24.1642 C   0  0  0  0  0  0  0  0  0  0  0  0
   10.5613   -2.8538   25.3299 C   0  0  0  0  0  0  0  0  0  0  0  0
   11.1104   -1.1766   23.6460 C   0  0  0  0  0  0  0  0  0  0  0  0
    8.0984    0.1491   20.9303 C   0  0  0  0  0  0  0  0  0  0  0  0
    7.3759   -3.1601   26.8975 C   0  0  0  0  0  0  0  0  0  0  0  0
   10.0348    0.7590   22.4215 C   0  0  0  0  0  0  0  0  0  0  0  0
    9.7652   -3.7104   27.6009 C   0  0  0  0  0  0  0  0  0  0  0  0
   11.3207    0.1048   22.9320 C   0  0  0  0  0  0  0  0  0  0  0  0
    8.2530   -4.0069   27.7872 C   0  0  0  0  0  0  0  0  0  0  0  0
    7.4210   -3.0866   25.5858 N   0  0  0  0  0  0  0  0  0  0  0  0
    7.4812   -0.7760   20.1260 N   0  0  0  0  0  0  0  0  0  0  0  0
    6.2764    1.0878   20.2099 N   0  0  0  0  0  0  0  0  0  0  0  0
   11.0134   -4.7702   24.3009 N   0  0  0  0  0  0  0  0  0  0  0  0
    6.4043   -2.3513   27.4183 N   0  0  0  0  0  0  0  0  0  0  0  0
    9.3259   -0.1027   21.5881 N   0  0  0  0  0  0  0  0  0  0  0  0
    9.7268    1.9023   22.7427 O   0  0  0  0  0  0  0  0  0  0  0  0
   10.5174   -1.1231   25.2615 S   0  0  0  0  0  0  0  0  0  0  0  0
   11.7089   -2.6762   22.1757 H   0  0  0  0  0  0  0  0  0  0  0  0
    6.2397   -1.9313   24.2221 H   0  0  0  0  0  0  0  0  0  0  0  0
    4.9819   -1.0210   26.5165 H   0  0  0  0  0  0  0  0  0  0  0  0
   10.4934   -6.1059   25.8676 H   0  0  0  0  0  0  0  0  0  0  0  0
    7.5200    2.2504   21.5147 H   0  0  0  0  0  0  0  0  0  0  0  0
    5.6427   -0.6030   19.0492 H   0  0  0  0  0  0  0  0  0  0  0  0
   10.3148   -4.3602   28.3169 H   0  0  0  0  0  0  0  0  0  0  0  0
    9.9679   -2.6810   27.9725 H   0  0  0  0  0  0  0  0  0  0  0  0
   11.8318    0.8380   23.5834 H   0  0  0  0  0  0  0  0  0  0  0  0
   11.9919   -0.0361   22.0646 H   0  0  0  0  0  0  0  0  0  0  0  0
    7.9538   -3.8339   28.8292 H   0  0  0  0  0  0  0  0  0  0  0  0
    8.0598   -5.0704   27.5971 H   0  0  0  0  0  0  0  0  0  0  0  0
    5.5230    1.7383   20.0317 H   0  0  0  0  0  0  0  0  0  0  0  0
   11.3041   -5.4134   23.5753 H   0  0  0  0  0  0  0  0  0  0  0  0
    6.1809   -2.2369   28.3982 H   0  0  0  0  0  0  0  0  0  0  0  0
    9.7387   -1.0203   21.4343 H   0  0  0  0  0  0  0  0  0  0  0  0
  1  8  1  0  0  0  0
  1 10  2  0  0  0  0
  1 25  1  0  0  0  0
  2  3  2  0  0  0  0
  2 17  1  0  0  0  0
  2 26  1  0  0  0  0
  3 21  1  0  0  0  0
  3 27  1  0  0  0  0
  4  7  2  0  0  0  0
  4 20  1  0  0  0  0
  4 28  1  0  0  0  0
  5 11  2  0  0  0  0
  5 19  1  0  0  0  0
  5 29  1  0  0  0  0
  6 18  2  0  0  0  0
  6 19  1  0  0  0  0
  6 30  1  0  0  0  0
  7  9  1  0  0  0  0
  7 14  1  0  0  0  0
  8  9  2  0  0  0  0
  8 20  1  0  0  0  0
  9 24  1  0  0  0  0
 10 15  1  0  0  0  0
 10 24  1  0  0  0  0
 11 18  1  0  0  0  0
 11 22  1  0  0  0  0
 12 16  1  0  0  0  0
 12 17  2  0  0  0  0
 12 21  1  0  0  0  0
 13 15  1  0  0  0  0
 13 22  1  0  0  0  0
 13 23  2  0  0  0  0
 14 16  1  0  0  0  0
 14 31  1  0  0  0  0
 14 32  1  0  0  0  0
 15 33  1  0  0  0  0
 15 34  1  0  0  0  0
 16 35  1  0  0  0  0
 16 36  1  0  0  0  0
 19 37  1  0  0  0  0
 20 38  1  0  0  0  0
 21 39  1  0  0  0  0
 22 40  1  0  0  0  0
M  END
>  <Chemgauss4 Score>
-5.1794114112854

>  <Number of Confs>
200

$$$$
