TRY-UNI-714-15
 OpenBabel03242009303D

 36 37  0  0  1  0  0  0  0  0999 V2000
   10.9694    0.2651   23.8993 C   0  0  0  0  0  0  0  0  0  0  0  0
    9.8174   -0.4706   23.6216 C   0  0  0  0  0  0  0  0  0  0  0  0
   12.1963   -0.1334   23.3684 C   0  0  0  0  0  0  0  0  0  0  0  0
   11.1190   -2.0034   22.2825 C   0  0  0  0  0  0  0  0  0  0  0  0
    7.7103   -5.3242   28.2321 C   0  0  0  0  0  0  0  0  0  0  0  0
    8.0216   -5.1729   25.9609 C   0  0  0  0  0  0  0  0  0  0  0  0
    9.8921   -1.6049   22.8133 C   0  0  0  0  0  0  0  0  0  0  0  0
    7.9810   -3.1749   27.2503 C   0  0  0  0  0  0  0  0  0  0  0  0
    7.7796   -3.9491   28.3875 C   0  0  0  0  0  0  0  0  0  0  0  0
    8.1053   -3.7907   26.0099 C   0  0  0  0  0  0  0  0  0  0  0  0
   12.2710   -1.2676   22.5601 C   0  0  0  0  0  0  0  0  0  0  0  0
    8.4487   -3.5402   23.5266 C   0  0  0  0  0  0  0  0  0  0  0  0
    8.0634   -1.6847   27.3603 C   0  0  0  0  0  0  0  0  0  0  0  0
    7.4072   -1.4973   22.4529 C   0  0  0  0  0  0  0  0  0  0  0  0
    8.6601   -2.3917   22.5179 C   0  0  1  0  0  0  0  0  0  0  0  0
    7.8265   -5.9583   27.0438 N   0  0  0  0  0  0  0  0  0  0  0  0
    7.6482   -3.3729   29.6637 N   0  0  0  0  0  0  0  0  0  0  0  0
    8.3122   -3.0490   24.8227 N   0  0  0  0  0  0  0  0  0  0  0  0
    8.3924   -4.7136   23.1699 O   0  0  0  0  0  0  0  0  0  0  0  0
   13.7852   -1.7594   21.9064 Cl  0  0  0  0  0  0  0  0  0  0  0  0
   10.9108    1.1483   24.5289 H   0  0  0  0  0  0  0  0  0  0  0  0
    8.8657   -0.1528   24.0396 H   0  0  0  0  0  0  0  0  0  0  0  0
   13.0860    0.4496   23.5935 H   0  0  0  0  0  0  0  0  0  0  0  0
   11.1719   -2.8882   21.6523 H   0  0  0  0  0  0  0  0  0  0  0  0
    7.5545   -5.9815   29.0824 H   0  0  0  0  0  0  0  0  0  0  0  0
    8.1115   -5.7115   25.0222 H   0  0  0  0  0  0  0  0  0  0  0  0
    9.1013   -1.3757   27.5232 H   0  0  0  0  0  0  0  0  0  0  0  0
    7.6910   -1.2019   26.4498 H   0  0  0  0  0  0  0  0  0  0  0  0
    7.4519   -1.3174   28.1924 H   0  0  0  0  0  0  0  0  0  0  0  0
    7.2422   -0.9689   23.3986 H   0  0  0  0  0  0  0  0  0  0  0  0
    7.4900   -0.7391   21.6661 H   0  0  0  0  0  0  0  0  0  0  0  0
    6.5169   -2.1003   22.2424 H   0  0  0  0  0  0  0  0  0  0  0  0
    8.7345   -2.8746   21.5232 H   0  0  0  0  0  0  0  0  0  0  0  0
    7.4572   -3.9614   30.4518 H   0  0  0  0  0  0  0  0  0  0  0  0
    7.6531   -2.3752   29.7556 H   0  0  0  0  0  0  0  0  0  0  0  0
    8.3616   -2.0399   24.9457 H   0  0  0  0  0  0  0  0  0  0  0  0
  1  2  2  0  0  0  0
  1  3  1  0  0  0  0
  1 21  1  0  0  0  0
  2  7  1  0  0  0  0
  2 22  1  0  0  0  0
  3 11  2  0  0  0  0
  3 23  1  0  0  0  0
  4  7  2  0  0  0  0
  4 11  1  0  0  0  0
  4 24  1  0  0  0  0
  5  9  2  0  0  0  0
  5 16  1  0  0  0  0
  5 25  1  0  0  0  0
  6 10  1  0  0  0  0
  6 16  2  0  0  0  0
  6 26  1  0  0  0  0
  7 15  1  0  0  0  0
  8  9  1  0  0  0  0
  8 10  2  0  0  0  0
  8 13  1  0  0  0  0
  9 17  1  0  0  0  0
 10 18  1  0  0  0  0
 11 20  1  0  0  0  0
 12 15  1  0  0  0  0
 12 18  1  0  0  0  0
 12 19  2  0  0  0  0
 13 27  1  0  0  0  0
 13 28  1  0  0  0  0
 13 29  1  0  0  0  0
 14 15  1  0  0  0  0
 14 30  1  0  0  0  0
 14 31  1  0  0  0  0
 14 32  1  0  0  0  0
 15 33  1  6  0  0  0
 17 34  1  0  0  0  0
 17 35  1  0  0  0  0
 18 36  1  0  0  0  0
M  END
>  <Chemgauss4 Score>
-6.28331899642944

>  <Number of Confs>
42

$$$$
