JOH-MSK-a63-5
 OpenBabel03242009303D

 33 34  0  0  0  0  0  0  0  0999 V2000
   11.2592   -3.7253   23.8713 C   0  0  0  0  0  0  0  0  0  0  0  0
   11.0977   -2.4382   23.3506 C   0  0  0  0  0  0  0  0  0  0  0  0
    9.4004   -1.9181   25.0076 C   0  0  0  0  0  0  0  0  0  0  0  0
    9.4896   -5.1648   26.6842 C   0  0  0  0  0  0  0  0  0  0  0  0
    9.5456   -3.2105   25.5497 C   0  0  0  0  0  0  0  0  0  0  0  0
    8.9349   -3.9069   26.6300 C   0  0  0  0  0  0  0  0  0  0  0  0
   10.4698   -4.0825   24.9702 C   0  0  0  0  0  0  0  0  0  0  0  0
   10.1833   -1.5468   23.9084 C   0  0  0  0  0  0  0  0  0  0  0  0
    6.2430   -5.1817   25.2676 C   0  0  0  0  0  0  0  0  0  0  0  0
    5.6728   -6.5486   25.0810 C   0  0  0  0  0  0  0  0  0  0  0  0
    7.8935   -3.3836   27.5368 C   0  0  0  0  0  0  0  0  0  0  0  0
    6.4860   -3.3350   26.9148 C   0  0  0  0  0  0  0  0  0  0  0  0
   10.4144   -5.2612   25.6794 N   0  0  0  0  0  0  0  0  0  0  0  0
    6.0213   -4.6386   26.5230 N   0  0  0  0  0  0  0  0  0  0  0  0
   11.9669    0.6594   24.5530 O   0  5  0  0  0  0  0  0  0  0  0  0
    6.8459   -4.6473   24.3442 O   0  0  0  0  0  0  0  0  0  0  0  0
   10.5773    2.0961   23.1378 O   0  0  0  0  0  0  0  0  0  0  0  0
   12.0477    0.3991   22.1193 O   0  0  0  0  0  0  0  0  0  0  0  0
   10.0488   -0.2980   23.3792 O   0  0  0  0  0  0  0  0  0  0  0  0
   11.2605    0.8109   23.2810 S   0  0  0  0  0  0  0  0  0  0  0  0
   11.9710   -4.4185   23.4359 H   0  0  0  0  0  0  0  0  0  0  0  0
   11.6980   -2.1352   22.4958 H   0  0  0  0  0  0  0  0  0  0  0  0
    8.6903   -1.2159   25.4361 H   0  0  0  0  0  0  0  0  0  0  0  0
    9.3100   -6.0002   27.3466 H   0  0  0  0  0  0  0  0  0  0  0  0
    4.6401   -6.5247   24.6975 H   0  0  0  0  0  0  0  0  0  0  0  0
    6.2413   -7.1451   24.3495 H   0  0  0  0  0  0  0  0  0  0  0  0
    5.6300   -7.1695   25.9901 H   0  0  0  0  0  0  0  0  0  0  0  0
    8.1550   -2.3579   27.8645 H   0  0  0  0  0  0  0  0  0  0  0  0
    7.8448   -3.9705   28.4764 H   0  0  0  0  0  0  0  0  0  0  0  0
    5.7551   -2.9405   27.6277 H   0  0  0  0  0  0  0  0  0  0  0  0
    6.4725   -2.6981   26.0243 H   0  0  0  0  0  0  0  0  0  0  0  0
   10.9753   -6.0791   25.4850 H   0  0  0  0  0  0  0  0  0  0  0  0
    5.5023   -5.1912   27.2036 H   0  0  0  0  0  0  0  0  0  0  0  0
  1  2  2  0  0  0  0
  1  7  1  0  0  0  0
  1 21  1  0  0  0  0
  2  8  1  0  0  0  0
  2 22  1  0  0  0  0
  3  5  1  0  0  0  0
  3  8  2  0  0  0  0
  3 23  1  0  0  0  0
  4  6  2  0  0  0  0
  4 13  1  0  0  0  0
  4 24  1  0  0  0  0
  5  6  1  0  0  0  0
  5  7  2  0  0  0  0
  6 11  1  0  0  0  0
  7 13  1  0  0  0  0
  8 19  1  0  0  0  0
  9 10  1  0  0  0  0
  9 14  1  0  0  0  0
  9 16  2  0  0  0  0
 10 25  1  0  0  0  0
 10 26  1  0  0  0  0
 10 27  1  0  0  0  0
 11 12  1  0  0  0  0
 11 28  1  0  0  0  0
 11 29  1  0  0  0  0
 12 14  1  0  0  0  0
 12 30  1  0  0  0  0
 12 31  1  0  0  0  0
 13 32  1  0  0  0  0
 14 33  1  0  0  0  0
 15 20  1  0  0  0  0
 17 20  2  0  0  0  0
 18 20  2  0  0  0  0
 19 20  1  0  0  0  0
M  CHG  1  15  -1
M  END
>  <Chemgauss4 Score>
-5.05524253845215

>  <Number of Confs>
200

$$$$
