MIH-UNI-6b9-5
 OpenBabel03242009303D

 29 30  0  0  0  0  0  0  0  0999 V2000
    6.2462   -5.9795   25.4638 C   0  0  0  0  0  0  0  0  0  0  0  0
    9.8553   -5.0710   25.3957 C   0  0  0  0  0  0  0  0  0  0  0  0
    8.6540   -5.6771   25.7631 C   0  0  0  0  0  0  0  0  0  0  0  0
    9.8793   -4.1460   24.3518 C   0  0  0  0  0  0  0  0  0  0  0  0
   10.4392   -0.8183   23.7086 C   0  0  0  0  0  0  0  0  0  0  0  0
   12.1752   -1.4063   22.1346 C   0  0  0  0  0  0  0  0  0  0  0  0
   11.2700    0.1566   24.2607 C   0  0  0  0  0  0  0  0  0  0  0  0
   13.0061   -0.4313   22.6867 C   0  0  0  0  0  0  0  0  0  0  0  0
    7.5005   -4.4336   24.0426 C   0  0  0  0  0  0  0  0  0  0  0  0
    7.4766   -5.3585   25.0865 C   0  0  0  0  0  0  0  0  0  0  0  0
    8.7018   -3.8274   23.6753 C   0  0  0  0  0  0  0  0  0  0  0  0
   10.8919   -1.5998   22.6455 C   0  0  0  0  0  0  0  0  0  0  0  0
   12.5534    0.3501   23.7498 C   0  0  0  0  0  0  0  0  0  0  0  0
    8.7277   -2.8386   22.5591 C   0  0  0  0  0  0  0  0  0  0  0  0
    5.2470   -6.4838   25.7703 N   0  0  0  0  0  0  0  0  0  0  0  0
   10.0655   -2.5695   22.0964 N   0  0  0  0  0  0  0  0  0  0  0  0
   13.3641    1.3015   24.2885 O   0  0  0  0  0  0  0  0  0  0  0  0
   10.7726   -5.3197   25.9216 H   0  0  0  0  0  0  0  0  0  0  0  0
    8.6512   -6.3958   26.5791 H   0  0  0  0  0  0  0  0  0  0  0  0
   10.8201   -3.6786   24.0733 H   0  0  0  0  0  0  0  0  0  0  0  0
    9.4409   -0.9607   24.1145 H   0  0  0  0  0  0  0  0  0  0  0  0
   12.5380   -2.0097   21.3064 H   0  0  0  0  0  0  0  0  0  0  0  0
   10.9118    0.7623   25.0887 H   0  0  0  0  0  0  0  0  0  0  0  0
   14.0048   -0.2852   22.2843 H   0  0  0  0  0  0  0  0  0  0  0  0
    6.5854   -4.1818   23.5103 H   0  0  0  0  0  0  0  0  0  0  0  0
    8.1468   -3.1979   21.6980 H   0  0  0  0  0  0  0  0  0  0  0  0
    8.2864   -1.8787   22.8608 H   0  0  0  0  0  0  0  0  0  0  0  0
   10.4269   -3.1214   21.3247 H   0  0  0  0  0  0  0  0  0  0  0  0
   14.2186    1.3151   23.8285 H   0  0  0  0  0  0  0  0  0  0  0  0
  1 10  1  0  0  0  0
  1 15  3  0  0  0  0
  2  3  2  0  0  0  0
  2  4  1  0  0  0  0
  2 18  1  0  0  0  0
  3 10  1  0  0  0  0
  3 19  1  0  0  0  0
  4 11  2  0  0  0  0
  4 20  1  0  0  0  0
  5  7  2  0  0  0  0
  5 12  1  0  0  0  0
  5 21  1  0  0  0  0
  6  8  1  0  0  0  0
  6 12  2  0  0  0  0
  6 22  1  0  0  0  0
  7 13  1  0  0  0  0
  7 23  1  0  0  0  0
  8 13  2  0  0  0  0
  8 24  1  0  0  0  0
  9 10  2  0  0  0  0
  9 11  1  0  0  0  0
  9 25  1  0  0  0  0
 11 14  1  0  0  0  0
 12 16  1  0  0  0  0
 13 17  1  0  0  0  0
 14 16  1  0  0  0  0
 14 26  1  0  0  0  0
 14 27  1  0  0  0  0
 16 28  1  0  0  0  0
 17 29  1  0  0  0  0
M  END
>  <Chemgauss4 Score>
-5.4286036491394

>  <Number of Confs>
31

$$$$
