CHR-SOS-70e-2
 OpenBabel03242009303D

 50 52  0  0  0  0  0  0  0  0999 V2000
    5.7934    1.7146   19.1276 C   0  0  0  0  0  0  0  0  0  0  0  0
    6.4139    1.5162   20.3560 C   0  0  0  0  0  0  0  0  0  0  0  0
    8.3956   -3.3155   25.1238 C   0  0  0  0  0  0  0  0  0  0  0  0
   10.6503   -4.0451   25.5942 C   0  0  0  0  0  0  0  0  0  0  0  0
    7.9511   -3.9365   26.2910 C   0  0  0  0  0  0  0  0  0  0  0  0
   10.2058   -4.6661   26.7614 C   0  0  0  0  0  0  0  0  0  0  0  0
    6.2837    1.0198   18.0337 C   0  0  0  0  0  0  0  0  0  0  0  0
    7.9045   -0.0056   19.2984 C   0  0  0  0  0  0  0  0  0  0  0  0
    7.4904    0.6413   20.4516 C   0  0  0  0  0  0  0  0  0  0  0  0
    9.7452   -3.3698   24.7753 C   0  0  0  0  0  0  0  0  0  0  0  0
    8.8562   -4.6117   27.1098 C   0  0  0  0  0  0  0  0  0  0  0  0
    8.7850   -0.7407   22.1117 C   0  0  0  0  0  0  0  0  0  0  0  0
   12.9037    0.4077   24.2946 C   0  0  0  0  0  0  0  0  0  0  0  0
   11.8296    0.1716   25.3527 C   0  0  0  0  0  0  0  0  0  0  0  0
   12.3609    0.2318   22.8791 C   0  0  0  0  0  0  0  0  0  0  0  0
   11.1518   -1.1848   25.1732 C   0  0  0  0  0  0  0  0  0  0  0  0
   11.6834   -1.1250   22.7014 C   0  0  0  0  0  0  0  0  0  0  0  0
   10.5971   -1.3968   23.7550 C   0  0  0  0  0  0  0  0  0  0  0  0
    9.3480   -0.5455   23.5068 C   0  0  0  0  0  0  0  0  0  0  0  0
    7.3269    0.1618   18.0876 N   0  0  0  0  0  0  0  0  0  0  0  0
    8.4738   -4.1213   29.7017 N   0  0  0  0  0  0  0  0  0  0  0  0
    8.1422    0.4190   21.6879 N   0  0  0  0  0  0  0  0  0  0  0  0
    8.9096   -1.7926   21.4933 O   0  0  0  0  0  0  0  0  0  0  0  0
    6.8836   -5.6931   28.4186 O   0  0  0  0  0  0  0  0  0  0  0  0
    9.2344   -6.4529   28.9131 O   0  0  0  0  0  0  0  0  0  0  0  0
   10.1808   -2.7611   23.6323 O   0  0  0  0  0  0  0  0  0  0  0  0
    8.2997   -5.3900   28.5707 S   0  0  0  0  0  0  0  0  0  0  0  0
    4.9527    2.3919   19.0297 H   0  0  0  0  0  0  0  0  0  0  0  0
    6.0508    2.0478   21.2316 H   0  0  0  0  0  0  0  0  0  0  0  0
    7.6860   -2.7902   24.4903 H   0  0  0  0  0  0  0  0  0  0  0  0
   11.7027   -4.0909   25.3279 H   0  0  0  0  0  0  0  0  0  0  0  0
    6.8976   -3.8879   26.5529 H   0  0  0  0  0  0  0  0  0  0  0  0
   10.9192   -5.1898   27.3920 H   0  0  0  0  0  0  0  0  0  0  0  0
    5.8350    1.1405   17.0532 H   0  0  0  0  0  0  0  0  0  0  0  0
    8.7390   -0.7005   19.3097 H   0  0  0  0  0  0  0  0  0  0  0  0
   13.3078    1.4230   24.4062 H   0  0  0  0  0  0  0  0  0  0  0  0
   13.7396   -0.2845   24.4570 H   0  0  0  0  0  0  0  0  0  0  0  0
   12.2807    0.2323   26.3507 H   0  0  0  0  0  0  0  0  0  0  0  0
   11.0788    0.9682   25.2962 H   0  0  0  0  0  0  0  0  0  0  0  0
   11.6445    1.0318   22.6592 H   0  0  0  0  0  0  0  0  0  0  0  0
   13.1808    0.3351   22.1576 H   0  0  0  0  0  0  0  0  0  0  0  0
   11.8859   -1.9697   25.4101 H   0  0  0  0  0  0  0  0  0  0  0  0
   10.3380   -1.2772   25.9086 H   0  0  0  0  0  0  0  0  0  0  0  0
   11.2440   -1.1756   21.6931 H   0  0  0  0  0  0  0  0  0  0  0  0
   12.4583   -1.9051   22.7487 H   0  0  0  0  0  0  0  0  0  0  0  0
    9.6047    0.5074   23.6426 H   0  0  0  0  0  0  0  0  0  0  0  0
    8.5843   -0.8153   24.2396 H   0  0  0  0  0  0  0  0  0  0  0  0
    7.6207   -3.6752   30.0605 H   0  0  0  0  0  0  0  0  0  0  0  0
    9.2274   -4.1945   30.3960 H   0  0  0  0  0  0  0  0  0  0  0  0
    8.1327    1.2068   22.3324 H   0  0  0  0  0  0  0  0  0  0  0  0
  1  2  2  0  0  0  0
  1  7  1  0  0  0  0
  1 28  1  0  0  0  0
  2  9  1  0  0  0  0
  2 29  1  0  0  0  0
  3  5  2  0  0  0  0
  3 10  1  0  0  0  0
  3 30  1  0  0  0  0
  4  6  1  0  0  0  0
  4 10  2  0  0  0  0
  4 31  1  0  0  0  0
  5 11  1  0  0  0  0
  5 32  1  0  0  0  0
  6 11  2  0  0  0  0
  6 33  1  0  0  0  0
  7 20  2  0  0  0  0
  7 34  1  0  0  0  0
  8  9  2  0  0  0  0
  8 20  1  0  0  0  0
  8 35  1  0  0  0  0
  9 22  1  0  0  0  0
 10 26  1  0  0  0  0
 11 27  1  0  0  0  0
 12 19  1  0  0  0  0
 12 22  1  0  0  0  0
 12 23  2  0  0  0  0
 13 14  1  0  0  0  0
 13 15  1  0  0  0  0
 13 36  1  0  0  0  0
 13 37  1  0  0  0  0
 14 16  1  0  0  0  0
 14 38  1  0  0  0  0
 14 39  1  0  0  0  0
 15 17  1  0  0  0  0
 15 40  1  0  0  0  0
 15 41  1  0  0  0  0
 16 18  1  0  0  0  0
 16 42  1  0  0  0  0
 16 43  1  0  0  0  0
 17 18  1  0  0  0  0
 17 44  1  0  0  0  0
 17 45  1  0  0  0  0
 18 19  1  0  0  0  0
 18 26  1  0  0  0  0
 19 46  1  0  0  0  0
 19 47  1  0  0  0  0
 21 27  1  0  0  0  0
 21 48  1  0  0  0  0
 21 49  1  0  0  0  0
 22 50  1  0  0  0  0
 24 27  2  0  0  0  0
 25 27  2  0  0  0  0
M  END
>  <Chemgauss4 Score>
-6.37075424194336

>  <Number of Confs>
200

$$$$
