SAL-INS-cba-5
 OpenBabel03242009303D

 60 64  0  0  0  0  0  0  0  0999 V2000
    9.5798   -2.9865   28.3576 C   0  0  0  0  0  0  0  0  0  0  0  0
    5.5433   -6.0347   25.7705 C   0  0  0  0  0  0  0  0  0  0  0  0
    7.9132    0.8839   22.0710 C   0  0  0  0  0  0  0  0  0  0  0  0
    5.0398   -4.7552   25.7764 C   0  0  0  0  0  0  0  0  0  0  0  0
    7.9018    0.2530   20.0381 C   0  0  0  0  0  0  0  0  0  0  0  0
   10.6027   -3.3267   24.9581 C   0  0  0  0  0  0  0  0  0  0  0  0
   10.0266   -3.5960   26.2270 C   0  0  0  0  0  0  0  0  0  0  0  0
   10.1995   -2.5933   27.1366 C   0  0  0  0  0  0  0  0  0  0  0  0
    9.0519   -4.2360   28.1153 C   0  0  0  0  0  0  0  0  0  0  0  0
   11.2044   -2.0863   24.9726 C   0  0  0  0  0  0  0  0  0  0  0  0
    9.0060    0.0606   21.9356 C   0  0  0  0  0  0  0  0  0  0  0  0
    6.1626   -5.1882   27.6226 C   0  0  0  0  0  0  0  0  0  0  0  0
   11.0772   -1.2083   22.6028 C   0  0  0  0  0  0  0  0  0  0  0  0
    8.9671   -5.9521   22.7082 C   0  0  0  0  0  0  0  0  0  0  0  0
    8.4837   -3.4721   22.5973 C   0  0  0  0  0  0  0  0  0  0  0  0
    7.5351   -6.2473   22.2720 C   0  0  0  0  0  0  0  0  0  0  0  0
    7.0531   -3.7742   22.1617 C   0  0  0  0  0  0  0  0  0  0  0  0
    9.0685   -4.6097   23.4459 C   0  0  2  0  0  0  0  0  0  0  0  0
    6.9562   -5.1112   21.4314 C   0  0  2  0  0  0  0  0  0  0  0  0
   10.5180   -4.3104   23.8238 C   0  0  0  0  0  0  0  0  0  0  0  0
    8.2977   -5.1329   29.0140 C   0  0  0  0  0  0  0  0  0  0  0  0
   11.9214   -1.4146   23.8622 C   0  0  0  0  0  0  0  0  0  0  0  0
    6.7635   -4.9321   28.9832 C   0  0  0  0  0  0  0  0  0  0  0  0
    7.2298    0.9993   20.8864 N   0  0  0  0  0  0  0  0  0  0  0  0
    6.2409   -6.2981   26.9226 N   0  0  0  0  0  0  0  0  0  0  0  0
    5.4444   -4.2256   26.9694 N   0  0  0  0  0  0  0  0  0  0  0  0
    8.9853   -0.3361   20.6281 N   0  0  0  0  0  0  0  0  0  0  0  0
    9.3200   -4.6097   26.8258 N   0  0  0  0  0  0  0  0  0  0  0  0
   10.0000   -0.3611   22.8504 N   0  0  0  0  0  0  0  0  0  0  0  0
   11.3667   -1.7510   21.5413 O   0  0  0  0  0  0  0  0  0  0  0  0
    5.5868   -5.3758   21.1473 O   0  0  0  0  0  0  0  0  0  0  0  0
   11.0842   -1.2577   26.4770 S   0  0  0  0  0  0  0  0  0  0  0  0
    9.5286   -2.4305   29.2830 H   0  0  0  0  0  0  0  0  0  0  0  0
    5.4375   -6.7799   24.9959 H   0  0  0  0  0  0  0  0  0  0  0  0
    7.5814    1.4013   22.9598 H   0  0  0  0  0  0  0  0  0  0  0  0
    4.4519   -4.1917   25.0667 H   0  0  0  0  0  0  0  0  0  0  0  0
    7.6606    0.0985   18.9962 H   0  0  0  0  0  0  0  0  0  0  0  0
    9.3224   -6.7626   23.3556 H   0  0  0  0  0  0  0  0  0  0  0  0
    9.6186   -5.9434   21.8249 H   0  0  0  0  0  0  0  0  0  0  0  0
    9.1059   -3.3122   21.7072 H   0  0  0  0  0  0  0  0  0  0  0  0
    8.4984   -2.5354   23.1671 H   0  0  0  0  0  0  0  0  0  0  0  0
    7.5014   -7.1837   21.7020 H   0  0  0  0  0  0  0  0  0  0  0  0
    6.9035   -6.4153   23.1544 H   0  0  0  0  0  0  0  0  0  0  0  0
    6.3898   -3.7812   23.0364 H   0  0  0  0  0  0  0  0  0  0  0  0
    6.6813   -2.9701   21.5153 H   0  0  0  0  0  0  0  0  0  0  0  0
    8.4860   -4.6817   24.3744 H   0  0  0  0  0  0  0  0  0  0  0  0
    7.4900   -5.0487   20.4756 H   0  0  0  0  0  0  0  0  0  0  0  0
   11.0486   -3.9198   22.9498 H   0  0  0  0  0  0  0  0  0  0  0  0
   11.0222   -5.2423   24.0987 H   0  0  0  0  0  0  0  0  0  0  0  0
    8.5014   -6.1894   28.7479 H   0  0  0  0  0  0  0  0  0  0  0  0
    8.6494   -5.0451   30.0621 H   0  0  0  0  0  0  0  0  0  0  0  0
   12.2951   -0.4236   24.1797 H   0  0  0  0  0  0  0  0  0  0  0  0
   12.8202   -1.9897   23.5730 H   0  0  0  0  0  0  0  0  0  0  0  0
    6.5115   -3.9062   29.2821 H   0  0  0  0  0  0  0  0  0  0  0  0
    6.2880   -5.5822   29.7287 H   0  0  0  0  0  0  0  0  0  0  0  0
    5.2499   -3.2914   27.3049 H   0  0  0  0  0  0  0  0  0  0  0  0
    9.6497   -0.9522   20.1793 H   0  0  0  0  0  0  0  0  0  0  0  0
    9.0604   -5.4711   26.3611 H   0  0  0  0  0  0  0  0  0  0  0  0
    9.9180   -0.0037   23.8000 H   0  0  0  0  0  0  0  0  0  0  0  0
    5.5611   -6.2134   20.6582 H   0  0  0  0  0  0  0  0  0  0  0  0
  1  8  1  0  0  0  0
  1  9  2  0  0  0  0
  1 33  1  0  0  0  0
  2  4  2  0  0  0  0
  2 25  1  0  0  0  0
  2 34  1  0  0  0  0
  3 11  2  0  0  0  0
  3 24  1  0  0  0  0
  3 35  1  0  0  0  0
  4 26  1  0  0  0  0
  4 36  1  0  0  0  0
  5 24  2  0  0  0  0
  5 27  1  0  0  0  0
  5 37  1  0  0  0  0
  6  7  1  0  0  0  0
  6 10  2  0  0  0  0
  6 20  1  0  0  0  0
  7  8  2  0  0  0  0
  7 28  1  0  0  0  0
  8 32  1  0  0  0  0
  9 21  1  0  0  0  0
  9 28  1  0  0  0  0
 10 22  1  0  0  0  0
 10 32  1  0  0  0  0
 11 27  1  0  0  0  0
 11 29  1  0  0  0  0
 12 23  1  0  0  0  0
 12 25  2  0  0  0  0
 12 26  1  0  0  0  0
 13 22  1  0  0  0  0
 13 29  1  0  0  0  0
 13 30  2  0  0  0  0
 14 16  1  0  0  0  0
 14 18  1  0  0  0  0
 14 38  1  0  0  0  0
 14 39  1  0  0  0  0
 15 17  1  0  0  0  0
 15 18  1  0  0  0  0
 15 40  1  0  0  0  0
 15 41  1  0  0  0  0
 16 19  1  0  0  0  0
 16 42  1  0  0  0  0
 16 43  1  0  0  0  0
 17 19  1  0  0  0  0
 17 44  1  0  0  0  0
 17 45  1  0  0  0  0
 18 20  1  0  0  0  0
 18 46  1  1  0  0  0
 19 31  1  0  0  0  0
 19 47  1  6  0  0  0
 20 48  1  0  0  0  0
 20 49  1  0  0  0  0
 21 23  1  0  0  0  0
 21 50  1  0  0  0  0
 21 51  1  0  0  0  0
 22 52  1  0  0  0  0
 22 53  1  0  0  0  0
 23 54  1  0  0  0  0
 23 55  1  0  0  0  0
 26 56  1  0  0  0  0
 27 57  1  0  0  0  0
 28 58  1  0  0  0  0
 29 59  1  0  0  0  0
 31 60  1  0  0  0  0
M  END
>  <Chemgauss4 Score>
-5.36330270767212

>  <Number of Confs>
200

$$$$
