GIA-UNK-595-5
 OpenBabel03242009303D

 38 39  0  0  0  0  0  0  0  0999 V2000
   14.2474   -0.6800   22.2527 C   0  0  0  0  0  0  0  0  0  0  0  0
   13.6945   -1.6725   21.4435 C   0  0  0  0  0  0  0  0  0  0  0  0
   13.5081   -0.1501   23.3102 C   0  0  0  0  0  0  0  0  0  0  0  0
   12.4022   -2.1350   21.6916 C   0  0  0  0  0  0  0  0  0  0  0  0
   12.2158   -0.6126   23.5584 C   0  0  0  0  0  0  0  0  0  0  0  0
   11.6628   -1.6051   22.7491 C   0  0  0  0  0  0  0  0  0  0  0  0
    7.8625   -5.2955   27.3403 C   0  0  0  0  0  0  0  0  0  0  0  0
    9.7734   -4.4744   24.9832 C   0  0  0  0  0  0  0  0  0  0  0  0
    7.6927   -3.1886   24.3955 C   0  0  0  0  0  0  0  0  0  0  0  0
   10.4834   -3.1337   25.2095 C   0  0  0  0  0  0  0  0  0  0  0  0
    8.4766   -1.8944   24.6453 C   0  0  0  0  0  0  0  0  0  0  0  0
    8.2652   -4.3585   25.1949 C   0  0  0  0  0  0  0  0  0  0  0  0
    7.4226   -5.9289   29.7080 C   0  0  0  0  0  0  0  0  0  0  0  0
   10.2716   -2.1023   23.0167 C   0  0  0  0  0  0  0  0  0  0  0  0
    9.9244   -2.0194   24.4334 N   0  0  0  0  0  0  0  0  0  0  0  0
    7.6261   -4.9592   28.6566 N   0  0  0  0  0  0  0  0  0  0  0  0
    7.9306   -6.4357   26.8933 O   0  0  0  0  0  0  0  0  0  0  0  0
    8.0138   -4.1613   26.5850 O   0  0  0  0  0  0  0  0  0  0  0  0
   15.2542   -0.3209   22.0601 H   0  0  0  0  0  0  0  0  0  0  0  0
   14.2704   -2.0860   20.6207 H   0  0  0  0  0  0  0  0  0  0  0  0
   13.9387    0.6218   23.9411 H   0  0  0  0  0  0  0  0  0  0  0  0
   11.9794   -2.9084   21.0558 H   0  0  0  0  0  0  0  0  0  0  0  0
   11.6471   -0.1938   24.3844 H   0  0  0  0  0  0  0  0  0  0  0  0
    9.9784   -4.8407   23.9689 H   0  0  0  0  0  0  0  0  0  0  0  0
   10.1867   -5.2355   25.6602 H   0  0  0  0  0  0  0  0  0  0  0  0
    6.6350   -3.0424   24.6563 H   0  0  0  0  0  0  0  0  0  0  0  0
    7.7018   -3.4305   23.3251 H   0  0  0  0  0  0  0  0  0  0  0  0
   10.4237   -2.8991   26.2921 H   0  0  0  0  0  0  0  0  0  0  0  0
   11.5664   -3.2551   24.9921 H   0  0  0  0  0  0  0  0  0  0  0  0
    8.0578   -1.0870   24.0068 H   0  0  0  0  0  0  0  0  0  0  0  0
    8.2808   -1.5783   25.6904 H   0  0  0  0  0  0  0  0  0  0  0  0
    7.7782   -5.2936   24.8967 H   0  0  0  0  0  0  0  0  0  0  0  0
    6.3510   -6.1634   29.7890 H   0  0  0  0  0  0  0  0  0  0  0  0
    7.9819   -6.8467   29.4734 H   0  0  0  0  0  0  0  0  0  0  0  0
    7.7805   -5.5153   30.6624 H   0  0  0  0  0  0  0  0  0  0  0  0
    9.5370   -1.5155   22.4545 H   0  0  0  0  0  0  0  0  0  0  0  0
   10.1608   -3.1464   22.7054 H   0  0  0  0  0  0  0  0  0  0  0  0
    7.5931   -3.9742   28.9007 H   0  0  0  0  0  0  0  0  0  0  0  0
  1  2  1  0  0  0  0
  1  3  2  0  0  0  0
  1 19  1  0  0  0  0
  2  4  2  0  0  0  0
  2 20  1  0  0  0  0
  3  5  1  0  0  0  0
  3 21  1  0  0  0  0
  4  6  1  0  0  0  0
  4 22  1  0  0  0  0
  5  6  2  0  0  0  0
  5 23  1  0  0  0  0
  6 14  1  0  0  0  0
  7 16  1  0  0  0  0
  7 17  2  0  0  0  0
  7 18  1  0  0  0  0
  8 10  1  0  0  0  0
  8 12  1  0  0  0  0
  8 24  1  0  0  0  0
  8 25  1  0  0  0  0
  9 11  1  0  0  0  0
  9 12  1  0  0  0  0
  9 26  1  0  0  0  0
  9 27  1  0  0  0  0
 10 15  1  0  0  0  0
 10 28  1  0  0  0  0
 10 29  1  0  0  0  0
 11 15  1  0  0  0  0
 11 30  1  0  0  0  0
 11 31  1  0  0  0  0
 12 18  1  0  0  0  0
 12 32  1  0  0  0  0
 13 16  1  0  0  0  0
 13 33  1  0  0  0  0
 13 34  1  0  0  0  0
 13 35  1  0  0  0  0
 14 15  1  0  0  0  0
 14 36  1  0  0  0  0
 14 37  1  0  0  0  0
 16 38  1  0  0  0  0
M  END
>  <Chemgauss4 Score>
-4.82066011428833

>  <Number of Confs>
90

$$$$
