AMD-U.A-3d2-1
 OpenBabel03242009303D

 27 28  0  0  0  0  0  0  0  0999 V2000
   11.9083    0.2989   24.0616 C   0  0  0  0  0  0  0  0  0  0  0  0
   12.5422   -0.2135   22.9269 C   0  0  0  0  0  0  0  0  0  0  0  0
    9.5734   -2.1348   26.4898 C   0  0  0  0  0  0  0  0  0  0  0  0
   11.6176   -2.3808   23.4008 C   0  0  0  0  0  0  0  0  0  0  0  0
    9.7718   -0.7927   26.7433 C   0  0  0  0  0  0  0  0  0  0  0  0
   10.9801   -1.8652   24.5421 C   0  0  0  0  0  0  0  0  0  0  0  0
   10.1899   -2.6741   25.3699 C   0  0  0  0  0  0  0  0  0  0  0  0
   11.1231   -0.5042   24.8842 C   0  0  0  0  0  0  0  0  0  0  0  0
   12.3969   -1.5550   22.5958 C   0  0  0  0  0  0  0  0  0  0  0  0
    9.9728   -4.0939   25.1094 C   0  0  0  0  0  0  0  0  0  0  0  0
   13.7950   -1.1514   20.7148 C   0  0  0  0  0  0  0  0  0  0  0  0
   10.5261    0.0220   25.9704 N   0  0  0  0  0  0  0  0  0  0  0  0
   10.2002   -6.3284   25.9491 N   0  0  0  0  0  0  0  0  0  0  0  0
   10.3950   -4.9689   26.1105 N   0  0  0  0  0  0  0  0  0  0  0  0
    9.4264   -4.5060   24.0768 O   0  0  0  0  0  0  0  0  0  0  0  0
   13.0125   -2.0574   21.4919 O   0  0  0  0  0  0  0  0  0  0  0  0
   12.0379    1.3532   24.2997 H   0  0  0  0  0  0  0  0  0  0  0  0
   13.1486    0.4431   22.3089 H   0  0  0  0  0  0  0  0  0  0  0  0
    8.9566   -2.7349   27.1500 H   0  0  0  0  0  0  0  0  0  0  0  0
   11.5174   -3.4280   23.1237 H   0  0  0  0  0  0  0  0  0  0  0  0
    9.3157   -0.3154   27.6044 H   0  0  0  0  0  0  0  0  0  0  0  0
   14.2298   -1.6816   19.8640 H   0  0  0  0  0  0  0  0  0  0  0  0
   14.5871   -0.7267   21.3366 H   0  0  0  0  0  0  0  0  0  0  0  0
   13.1507   -0.3480   20.3499 H   0  0  0  0  0  0  0  0  0  0  0  0
   10.0249   -6.7129   26.8766 H   0  0  0  0  0  0  0  0  0  0  0  0
    9.3308   -6.4416   25.4295 H   0  0  0  0  0  0  0  0  0  0  0  0
   10.8406   -4.6113   26.9487 H   0  0  0  0  0  0  0  0  0  0  0  0
  1  2  2  0  0  0  0
  1  8  1  0  0  0  0
  1 17  1  0  0  0  0
  2  9  1  0  0  0  0
  2 18  1  0  0  0  0
  3  5  1  0  0  0  0
  3  7  2  0  0  0  0
  3 19  1  0  0  0  0
  4  6  1  0  0  0  0
  4  9  2  0  0  0  0
  4 20  1  0  0  0  0
  5 12  2  0  0  0  0
  5 21  1  0  0  0  0
  6  7  1  0  0  0  0
  6  8  2  0  0  0  0
  7 10  1  0  0  0  0
  8 12  1  0  0  0  0
  9 16  1  0  0  0  0
 10 14  1  0  0  0  0
 10 15  2  0  0  0  0
 11 16  1  0  0  0  0
 11 22  1  0  0  0  0
 11 23  1  0  0  0  0
 11 24  1  0  0  0  0
 13 14  1  0  0  0  0
 13 25  1  0  0  0  0
 13 26  1  0  0  0  0
 14 27  1  0  0  0  0
M  END
>  <Chemgauss4 Score>
-6.1827974319458

>  <Number of Confs>
4

$$$$
